# File generated by Flopy version 3.9.2 on 02/19/2025 at 15:11:35.
BEGIN options
  BUDGET  FILEOUT  example_3.cbb
  HEAD  FILEOUT  example_3.hds
END options

BEGIN period  1
  SAVE  HEAD  ALL
  SAVE  BUDGET  ALL
  PRINT  HEAD  LAST
END period  1

