# File generated by Flopy version 3.9.2 on 09/17/2025 at 18:31:07.
BEGIN options
  TIME_UNITS  years
END options

BEGIN dimensions
  NPER  4
END dimensions

BEGIN perioddata
      30.00000000  30       1.00000000
      30.00000000  30       1.00000000
      30.00000000  30       1.00000000
      30.00000000  30       1.00000000
END perioddata

