# File generated by Flopy version 3.9.2 on 02/19/2025 at 15:08:29.
BEGIN options
  SAVE_FLOWS
END options

BEGIN griddata
  icelltype
    CONSTANT  1
  k  LAYERED
    INTERNAL  FACTOR  1.0
        7300.00000000    7300.00000000    7300.00000000    7300.00000000    7300.00000000    7300.00000000    7300.00000000    7300.00000000    7300.00000000    7300.00000000    7300.00000000
        7300.00000000    7300.00000000    7300.00000000    7300.00000000    7300.00000000    7300.00000000    7300.00000000    7300.00000000    7300.00000000    7300.00000000    7300.00000000
        7300.00000000    7300.00000000    7300.00000000    7300.00000000    7300.00000000    7300.00000000    7300.00000000    7300.00000000    7300.00000000    7300.00000000    7300.00000000
        7300.00000000    7300.00000000    7300.00000000    7300.00000000    7300.00000000    7300.00000000    7300.00000000    7300.00000000    7300.00000000    7300.00000000    7300.00000000
        7300.00000000    7300.00000000    7300.00000000    7300.00000000    7300.00000000    7300.00000000    7300.00000000    7300.00000000    7300.00000000    7300.00000000    7300.00000000
        7300.00000000    7300.00000000    7300.00000000    7300.00000000    7300.00000000    7300.00000000    7300.00000000    7300.00000000    7300.00000000    7300.00000000    7300.00000000
        7300.00000000    7300.00000000    7300.00000000    7300.00000000    7300.00000000    7300.00000000    7300.00000000    7300.00000000    7300.00000000    7300.00000000    7300.00000000
        7300.00000000    7300.00000000    7300.00000000    7300.00000000    7300.00000000    7300.00000000    7300.00000000    7300.00000000    7300.00000000    7300.00000000    7300.00000000
        7300.00000000    7300.00000000    7300.00000000    7300.00000000    7300.00000000    7300.00000000    7300.00000000    7300.00000000    7300.00000000    7300.00000000    7300.00000000
        7300.00000000    7300.00000000    7300.00000000    7300.00000000    7300.00000000    7300.00000000    7300.00000000    7300.00000000    7300.00000000    7300.00000000    7300.00000000
        7300.00000000    7300.00000000    7300.00000000    7300.00000000    7300.00000000    7300.00000000    7300.00000000    7300.00000000    7300.00000000    7300.00000000    7300.00000000
        7300.00000000    7300.00000000    7300.00000000    7300.00000000    7300.00000000    7300.00000000    7300.00000000    7300.00000000    7300.00000000    7300.00000000    7300.00000000
        7300.00000000    7300.00000000    7300.00000000    7300.00000000    7300.00000000    7300.00000000    7300.00000000    7300.00000000    7300.00000000    7300.00000000    7300.00000000
        7300.00000000    7300.00000000    7300.00000000    7300.00000000    7300.00000000    7300.00000000    7300.00000000    7300.00000000    7300.00000000    7300.00000000    7300.00000000
        7300.00000000    7300.00000000    7300.00000000    7300.00000000    7300.00000000    7300.00000000    7300.00000000    7300.00000000    7300.00000000    7300.00000000    7300.00000000
        7300.00000000    7300.00000000    7300.00000000    7300.00000000    7300.00000000    7300.00000000    7300.00000000    7300.00000000    7300.00000000    7300.00000000    7300.00000000
        7300.00000000    7300.00000000    7300.00000000    7300.00000000    7300.00000000    7300.00000000    7300.00000000    7300.00000000    7300.00000000    7300.00000000    7300.00000000
        7300.00000000    7300.00000000    7300.00000000    7300.00000000    7300.00000000    7300.00000000    7300.00000000    7300.00000000    7300.00000000    7300.00000000    7300.00000000
        7300.00000000    7300.00000000    7300.00000000    7300.00000000    7300.00000000    7300.00000000    7300.00000000    7300.00000000    7300.00000000    7300.00000000    7300.00000000
        7300.00000000    7300.00000000    7300.00000000    7300.00000000    7300.00000000    7300.00000000    7300.00000000    7300.00000000    7300.00000000    7300.00000000    7300.00000000
        7300.00000000    7300.00000000    7300.00000000    7300.00000000    7300.00000000    7300.00000000    7300.00000000    7300.00000000    7300.00000000    7300.00000000    7300.00000000
        7300.00000000    7300.00000000    7300.00000000    7300.00000000    7300.00000000    7300.00000000    7300.00000000    7300.00000000    7300.00000000    7300.00000000    7300.00000000
        7300.00000000    7300.00000000    7300.00000000    7300.00000000    7300.00000000    7300.00000000    7300.00000000    7300.00000000    7300.00000000    7300.00000000    7300.00000000
        7300.00000000    7300.00000000    7300.00000000    7300.00000000    7300.00000000    7300.00000000    7300.00000000    7300.00000000    7300.00000000    7300.00000000    7300.00000000
    INTERNAL  FACTOR  1.0
        7300.00000000    7300.00000000    7300.00000000    7300.00000000    7300.00000000    7300.00000000    7300.00000000    7300.00000000    7300.00000000    7300.00000000    7300.00000000
        7300.00000000    7300.00000000    7300.00000000    7300.00000000    7300.00000000    7300.00000000    7300.00000000    7300.00000000    7300.00000000    7300.00000000    7300.00000000
        7300.00000000    7300.00000000    7300.00000000    7300.00000000    7300.00000000    7300.00000000    7300.00000000    7300.00000000    7300.00000000    7300.00000000    7300.00000000
        7300.00000000    7300.00000000    7300.00000000    7300.00000000    7300.00000000    7300.00000000    7300.00000000    7300.00000000    7300.00000000    7300.00000000    7300.00000000
        7300.00000000    7300.00000000    7300.00000000    7300.00000000    7300.00000000    7300.00000000    7300.00000000    7300.00000000    7300.00000000    7300.00000000    7300.00000000
        7300.00000000    7300.00000000    7300.00000000    7300.00000000    7300.00000000    7300.00000000    7300.00000000    7300.00000000    7300.00000000    7300.00000000    7300.00000000
        7300.00000000    7300.00000000    7300.00000000    7300.00000000    7300.00000000    7300.00000000    7300.00000000    7300.00000000    7300.00000000    7300.00000000    7300.00000000
        7300.00000000    7300.00000000    7300.00000000    7300.00000000    7300.00000000    7300.00000000    7300.00000000    7300.00000000    7300.00000000    7300.00000000    7300.00000000
        7300.00000000    7300.00000000    7300.00000000    7300.00000000    7300.00000000    7300.00000000    7300.00000000    7300.00000000    7300.00000000    7300.00000000    7300.00000000
        7300.00000000    7300.00000000    7300.00000000    7300.00000000    7300.00000000    7300.00000000    7300.00000000    7300.00000000    7300.00000000    7300.00000000    7300.00000000
        7300.00000000    7300.00000000    7300.00000000    7300.00000000    7300.00000000    7300.00000000    7300.00000000    7300.00000000    7300.00000000    7300.00000000    7300.00000000
        7300.00000000    7300.00000000    7300.00000000    7300.00000000    7300.00000000    7300.00000000    7300.00000000    7300.00000000    7300.00000000    7300.00000000    7300.00000000
        7300.00000000    7300.00000000    7300.00000000    7300.00000000    7300.00000000    7300.00000000    7300.00000000    7300.00000000    7300.00000000    7300.00000000    7300.00000000
        7300.00000000    7300.00000000    7300.00000000    7300.00000000    7300.00000000    7300.00000000    7300.00000000    7300.00000000    7300.00000000    7300.00000000    7300.00000000
        7300.00000000    7300.00000000    7300.00000000    7300.00000000    7300.00000000    7300.00000000    7300.00000000    7300.00000000    7300.00000000    7300.00000000    7300.00000000
        7300.00000000    7300.00000000    7300.00000000    7300.00000000    7300.00000000    7300.00000000    7300.00000000    7300.00000000    7300.00000000    7300.00000000    7300.00000000
        7300.00000000    7300.00000000    7300.00000000    7300.00000000    7300.00000000    7300.00000000    7300.00000000    7300.00000000    7300.00000000    7300.00000000    7300.00000000
        7300.00000000    7300.00000000    7300.00000000    7300.00000000    7300.00000000    7300.00000000    7300.00000000    7300.00000000    7300.00000000    7300.00000000    7300.00000000
        7300.00000000    7300.00000000    7300.00000000    7300.00000000    7300.00000000    7300.00000000    7300.00000000    7300.00000000    7300.00000000    7300.00000000    7300.00000000
        7300.00000000    7300.00000000    7300.00000000    7300.00000000    7300.00000000    7300.00000000    7300.00000000    7300.00000000    7300.00000000    7300.00000000    7300.00000000
        7300.00000000    7300.00000000    7300.00000000    7300.00000000    7300.00000000    7300.00000000    7300.00000000    7300.00000000    7300.00000000    7300.00000000    7300.00000000
        7300.00000000    7300.00000000    7300.00000000    7300.00000000    7300.00000000    7300.00000000    7300.00000000    7300.00000000    7300.00000000    7300.00000000    7300.00000000
        7300.00000000    7300.00000000    7300.00000000    7300.00000000    7300.00000000    7300.00000000    7300.00000000    7300.00000000    7300.00000000    7300.00000000    7300.00000000
        7300.00000000    7300.00000000    7300.00000000    7300.00000000    7300.00000000    7300.00000000    7300.00000000    7300.00000000    7300.00000000    7300.00000000    7300.00000000
    INTERNAL  FACTOR  1.0
          36.50000000      36.50000000      36.50000000      36.50000000      36.50000000      36.50000000      36.50000000      36.50000000      36.50000000      36.50000000      36.50000000
          36.50000000      36.50000000      36.50000000      36.50000000      36.50000000      36.50000000      36.50000000      36.50000000      36.50000000      36.50000000      36.50000000
          36.50000000      36.50000000      36.50000000      36.50000000      36.50000000      36.50000000      36.50000000      36.50000000      36.50000000      36.50000000      36.50000000
          36.50000000      36.50000000      36.50000000      36.50000000      36.50000000      36.50000000      36.50000000      36.50000000      36.50000000      36.50000000      36.50000000
          36.50000000      36.50000000      36.50000000      36.50000000      36.50000000      36.50000000      36.50000000      36.50000000      36.50000000      36.50000000      36.50000000
          36.50000000      36.50000000      36.50000000      36.50000000      36.50000000      36.50000000      36.50000000      36.50000000      36.50000000      36.50000000      36.50000000
          36.50000000      36.50000000      36.50000000      36.50000000      36.50000000      36.50000000      36.50000000      36.50000000      36.50000000      36.50000000      36.50000000
          36.50000000      36.50000000      36.50000000      36.50000000      36.50000000      36.50000000      36.50000000      36.50000000      36.50000000      36.50000000      36.50000000
          36.50000000      36.50000000      36.50000000      36.50000000      36.50000000      36.50000000      36.50000000      36.50000000      36.50000000      36.50000000      36.50000000
          36.50000000      36.50000000      36.50000000      36.50000000      36.50000000      36.50000000      36.50000000      36.50000000      36.50000000      36.50000000      36.50000000
          36.50000000      36.50000000      36.50000000      36.50000000      36.50000000      36.50000000      36.50000000      36.50000000      36.50000000      36.50000000      36.50000000
          36.50000000      36.50000000      36.50000000      36.50000000      36.50000000      36.50000000      36.50000000      36.50000000      36.50000000      36.50000000      36.50000000
          36.50000000      36.50000000      36.50000000      36.50000000      36.50000000      36.50000000      36.50000000      36.50000000      36.50000000      36.50000000      36.50000000
          36.50000000      36.50000000      36.50000000      36.50000000      36.50000000      36.50000000      36.50000000      36.50000000      36.50000000      36.50000000      36.50000000
          36.50000000      36.50000000      36.50000000      36.50000000      36.50000000      36.50000000      36.50000000      36.50000000      36.50000000      36.50000000      36.50000000
          36.50000000      36.50000000      36.50000000      36.50000000      36.50000000      36.50000000      36.50000000      36.50000000      36.50000000      36.50000000      36.50000000
          36.50000000      36.50000000      36.50000000      36.50000000      36.50000000      36.50000000      36.50000000      36.50000000      36.50000000      36.50000000      36.50000000
          36.50000000      36.50000000      36.50000000      36.50000000      36.50000000      36.50000000      36.50000000      36.50000000      36.50000000      36.50000000      36.50000000
        7300.00000000    7300.00000000    7300.00000000    7300.00000000    7300.00000000    7300.00000000    7300.00000000    7300.00000000    7300.00000000    7300.00000000    7300.00000000
        7300.00000000    7300.00000000    7300.00000000    7300.00000000    7300.00000000    7300.00000000    7300.00000000    7300.00000000    7300.00000000    7300.00000000    7300.00000000
        7300.00000000    7300.00000000    7300.00000000    7300.00000000    7300.00000000    7300.00000000    7300.00000000    7300.00000000    7300.00000000    7300.00000000    7300.00000000
        7300.00000000    7300.00000000    7300.00000000    7300.00000000    7300.00000000    7300.00000000    7300.00000000    7300.00000000    7300.00000000    7300.00000000    7300.00000000
        7300.00000000    7300.00000000    7300.00000000    7300.00000000    7300.00000000    7300.00000000    7300.00000000    7300.00000000    7300.00000000    7300.00000000    7300.00000000
        7300.00000000    7300.00000000    7300.00000000    7300.00000000    7300.00000000    7300.00000000    7300.00000000    7300.00000000    7300.00000000    7300.00000000    7300.00000000
    INTERNAL  FACTOR  1.0
        7300.00000000    7300.00000000    7300.00000000    7300.00000000    7300.00000000    7300.00000000    7300.00000000    7300.00000000    7300.00000000    7300.00000000    7300.00000000
        7300.00000000    7300.00000000    7300.00000000    7300.00000000    7300.00000000    7300.00000000    7300.00000000    7300.00000000    7300.00000000    7300.00000000    7300.00000000
        7300.00000000    7300.00000000    7300.00000000    7300.00000000    7300.00000000    7300.00000000    7300.00000000    7300.00000000    7300.00000000    7300.00000000    7300.00000000
        7300.00000000    7300.00000000    7300.00000000    7300.00000000    7300.00000000    7300.00000000    7300.00000000    7300.00000000    7300.00000000    7300.00000000    7300.00000000
        7300.00000000    7300.00000000    7300.00000000    7300.00000000    7300.00000000    7300.00000000    7300.00000000    7300.00000000    7300.00000000    7300.00000000    7300.00000000
        7300.00000000    7300.00000000    7300.00000000    7300.00000000    7300.00000000    7300.00000000    7300.00000000    7300.00000000    7300.00000000    7300.00000000    7300.00000000
        7300.00000000    7300.00000000    7300.00000000    7300.00000000    7300.00000000    7300.00000000    7300.00000000    7300.00000000    7300.00000000    7300.00000000    7300.00000000
        7300.00000000    7300.00000000    7300.00000000    7300.00000000    7300.00000000    7300.00000000    7300.00000000    7300.00000000    7300.00000000    7300.00000000    7300.00000000
        7300.00000000    7300.00000000    7300.00000000    7300.00000000    7300.00000000    7300.00000000    7300.00000000    7300.00000000    7300.00000000    7300.00000000    7300.00000000
        7300.00000000    7300.00000000    7300.00000000    7300.00000000    7300.00000000    7300.00000000    7300.00000000    7300.00000000    7300.00000000    7300.00000000    7300.00000000
        7300.00000000    7300.00000000    7300.00000000    7300.00000000    7300.00000000    7300.00000000    7300.00000000    7300.00000000    7300.00000000    7300.00000000    7300.00000000
        7300.00000000    7300.00000000    7300.00000000    7300.00000000    7300.00000000    7300.00000000    7300.00000000    7300.00000000    7300.00000000    7300.00000000    7300.00000000
        7300.00000000    7300.00000000    7300.00000000    7300.00000000    7300.00000000    7300.00000000    7300.00000000    7300.00000000    7300.00000000    7300.00000000    7300.00000000
        7300.00000000    7300.00000000    7300.00000000    7300.00000000    7300.00000000    7300.00000000    7300.00000000    7300.00000000    7300.00000000    7300.00000000    7300.00000000
        7300.00000000    7300.00000000    7300.00000000    7300.00000000    7300.00000000    7300.00000000    7300.00000000    7300.00000000    7300.00000000    7300.00000000    7300.00000000
        7300.00000000    7300.00000000    7300.00000000    7300.00000000    7300.00000000    7300.00000000    7300.00000000    7300.00000000    7300.00000000    7300.00000000    7300.00000000
        7300.00000000    7300.00000000    7300.00000000    7300.00000000    7300.00000000    7300.00000000    7300.00000000    7300.00000000    7300.00000000    7300.00000000    7300.00000000
        7300.00000000    7300.00000000    7300.00000000    7300.00000000    7300.00000000    7300.00000000    7300.00000000    7300.00000000    7300.00000000    7300.00000000    7300.00000000
        7300.00000000    7300.00000000    7300.00000000    7300.00000000    7300.00000000    7300.00000000    7300.00000000    7300.00000000    7300.00000000    7300.00000000    7300.00000000
        7300.00000000    7300.00000000    7300.00000000    7300.00000000    7300.00000000    7300.00000000    7300.00000000    7300.00000000    7300.00000000    7300.00000000    7300.00000000
        7300.00000000    7300.00000000    7300.00000000    7300.00000000    7300.00000000    7300.00000000    7300.00000000    7300.00000000    7300.00000000    7300.00000000    7300.00000000
        7300.00000000    7300.00000000    7300.00000000    7300.00000000    7300.00000000    7300.00000000    7300.00000000    7300.00000000    7300.00000000    7300.00000000    7300.00000000
        7300.00000000    7300.00000000    7300.00000000    7300.00000000    7300.00000000    7300.00000000    7300.00000000    7300.00000000    7300.00000000    7300.00000000    7300.00000000
        7300.00000000    7300.00000000    7300.00000000    7300.00000000    7300.00000000    7300.00000000    7300.00000000    7300.00000000    7300.00000000    7300.00000000    7300.00000000
    INTERNAL  FACTOR  1.0
       14600.00000000   14600.00000000   14600.00000000   14600.00000000   14600.00000000   14600.00000000   14600.00000000   14600.00000000   14600.00000000   14600.00000000   14600.00000000
       14600.00000000   14600.00000000   14600.00000000   14600.00000000   14600.00000000   14600.00000000   14600.00000000   14600.00000000   14600.00000000   14600.00000000   14600.00000000
       14600.00000000   14600.00000000   14600.00000000   14600.00000000   14600.00000000   14600.00000000   14600.00000000   14600.00000000   14600.00000000   14600.00000000   14600.00000000
       14600.00000000   14600.00000000   14600.00000000   14600.00000000   14600.00000000   14600.00000000   14600.00000000   14600.00000000   14600.00000000   14600.00000000   14600.00000000
       14600.00000000   14600.00000000   14600.00000000   14600.00000000   14600.00000000   14600.00000000   14600.00000000   14600.00000000   14600.00000000   14600.00000000   14600.00000000
       14600.00000000   14600.00000000   14600.00000000   14600.00000000   14600.00000000   14600.00000000   14600.00000000   14600.00000000   14600.00000000   14600.00000000   14600.00000000
       14600.00000000   14600.00000000   14600.00000000   14600.00000000   14600.00000000   14600.00000000   14600.00000000   14600.00000000   14600.00000000   14600.00000000   14600.00000000
       14600.00000000   14600.00000000   14600.00000000   14600.00000000   14600.00000000   14600.00000000   14600.00000000   14600.00000000   14600.00000000   14600.00000000   14600.00000000
       14600.00000000   14600.00000000   14600.00000000   14600.00000000   14600.00000000   14600.00000000   14600.00000000   14600.00000000   14600.00000000   14600.00000000   14600.00000000
       14600.00000000   14600.00000000   14600.00000000   14600.00000000   14600.00000000   14600.00000000   14600.00000000   14600.00000000   14600.00000000   14600.00000000   14600.00000000
       14600.00000000   14600.00000000   14600.00000000   14600.00000000   14600.00000000   14600.00000000   14600.00000000   14600.00000000   14600.00000000   14600.00000000   14600.00000000
       14600.00000000   14600.00000000   14600.00000000   14600.00000000   14600.00000000   14600.00000000   14600.00000000   14600.00000000   14600.00000000   14600.00000000   14600.00000000
       14600.00000000   14600.00000000   14600.00000000   14600.00000000   14600.00000000   14600.00000000   14600.00000000   14600.00000000   14600.00000000   14600.00000000   14600.00000000
       14600.00000000   14600.00000000   14600.00000000   14600.00000000   14600.00000000   14600.00000000   14600.00000000   14600.00000000   14600.00000000   14600.00000000   14600.00000000
       14600.00000000   14600.00000000   14600.00000000   14600.00000000   14600.00000000   14600.00000000   14600.00000000   14600.00000000   14600.00000000   14600.00000000   14600.00000000
       14600.00000000   14600.00000000   14600.00000000   14600.00000000   14600.00000000   14600.00000000   14600.00000000   14600.00000000   14600.00000000   14600.00000000   14600.00000000
       14600.00000000   14600.00000000   14600.00000000   14600.00000000   14600.00000000   14600.00000000   14600.00000000   14600.00000000   14600.00000000   14600.00000000   14600.00000000
       14600.00000000   14600.00000000   14600.00000000   14600.00000000   14600.00000000   14600.00000000   14600.00000000   14600.00000000   14600.00000000   14600.00000000   14600.00000000
       14600.00000000   14600.00000000   14600.00000000   14600.00000000   14600.00000000   14600.00000000   14600.00000000   14600.00000000   14600.00000000   14600.00000000   14600.00000000
       14600.00000000   14600.00000000   14600.00000000   14600.00000000   14600.00000000   14600.00000000   14600.00000000   14600.00000000   14600.00000000   14600.00000000   14600.00000000
       14600.00000000   14600.00000000   14600.00000000   14600.00000000   14600.00000000   14600.00000000   14600.00000000   14600.00000000   14600.00000000   14600.00000000   14600.00000000
       14600.00000000   14600.00000000   14600.00000000   14600.00000000   14600.00000000   14600.00000000   14600.00000000   14600.00000000   14600.00000000   14600.00000000   14600.00000000
       14600.00000000   14600.00000000   14600.00000000   14600.00000000   14600.00000000   14600.00000000   14600.00000000   14600.00000000   14600.00000000   14600.00000000   14600.00000000
       14600.00000000   14600.00000000   14600.00000000   14600.00000000   14600.00000000   14600.00000000   14600.00000000   14600.00000000   14600.00000000   14600.00000000   14600.00000000
END griddata

