# File generated by Flopy version 3.9.2 on 02/19/2025 at 15:08:29.
BEGIN options
END options

BEGIN griddata
  strt  LAYERED
    INTERNAL  FACTOR  1.0
         151.00000000     151.00000000     151.00000000     151.00000000     151.00000000     151.00000000     151.00000000     151.00000000     151.00000000     151.00000000     151.00000000
         151.00000000     151.00000000     151.00000000     151.00000000     151.00000000     151.00000000     151.00000000     151.00000000     151.00000000     151.00000000     151.00000000
         151.00000000     151.00000000     151.00000000     151.00000000     151.00000000     151.00000000     151.00000000     151.00000000     151.00000000     151.00000000     151.00000000
         151.00000000     151.00000000     151.00000000     151.00000000     151.00000000     151.00000000     151.00000000     151.00000000     151.00000000     151.00000000     151.00000000
         151.00000000     151.00000000     151.00000000     151.00000000     151.00000000     151.00000000     151.00000000     151.00000000     151.00000000     151.00000000     151.00000000
         151.00000000     151.00000000     151.00000000     151.00000000     151.00000000     151.00000000     151.00000000     151.00000000     151.00000000     151.00000000     151.00000000
         151.00000000     151.00000000     151.00000000     151.00000000     151.00000000     151.00000000     151.00000000     151.00000000     151.00000000     151.00000000     151.00000000
         151.00000000     151.00000000     151.00000000     151.00000000     151.00000000     151.00000000     151.00000000     151.00000000     151.00000000     151.00000000     151.00000000
         151.00000000     151.00000000     151.00000000     151.00000000     151.00000000     151.00000000     151.00000000     151.00000000     151.00000000     151.00000000     151.00000000
         151.00000000     151.00000000     151.00000000     151.00000000     151.00000000     151.00000000     151.00000000     151.00000000     151.00000000     151.00000000     151.00000000
         151.00000000     151.00000000     151.00000000     151.00000000     151.00000000     151.00000000     151.00000000     151.00000000     151.00000000     151.00000000     151.00000000
         151.00000000     151.00000000     151.00000000     151.00000000     151.00000000     151.00000000     151.00000000     151.00000000     151.00000000     151.00000000     151.00000000
         151.00000000     151.00000000     151.00000000     151.00000000     151.00000000     151.00000000     151.00000000     151.00000000     151.00000000     151.00000000     151.00000000
         151.00000000     151.00000000     151.00000000     151.00000000     151.00000000     151.00000000     151.00000000     151.00000000     151.00000000     151.00000000     151.00000000
         151.00000000     151.00000000     151.00000000     151.00000000     151.00000000     151.00000000     151.00000000     151.00000000     151.00000000     151.00000000     151.00000000
         151.00000000     151.00000000     151.00000000     151.00000000     151.00000000     151.00000000     151.00000000     151.00000000     151.00000000     151.00000000     151.00000000
         151.00000000     151.00000000     151.00000000     151.00000000     151.00000000     151.00000000     151.00000000     151.00000000     151.00000000     151.00000000     151.00000000
         151.00000000     151.00000000     151.00000000     151.00000000     151.00000000     151.00000000     151.00000000     151.00000000     151.00000000     151.00000000     151.00000000
         151.00000000     151.00000000     151.00000000     151.00000000     151.00000000     151.00000000     151.00000000     151.00000000     151.00000000     151.00000000     151.00000000
         151.00000000     151.00000000     151.00000000     151.00000000     151.00000000     151.00000000     151.00000000     151.00000000     151.00000000     151.00000000     151.00000000
         151.00000000     151.00000000     151.00000000     151.00000000     151.00000000     151.00000000     151.00000000     151.00000000     151.00000000     151.00000000     151.00000000
         151.00000000     151.00000000     151.00000000     151.00000000     151.00000000     151.00000000     151.00000000     151.00000000     151.00000000     151.00000000     151.00000000
         151.00000000     151.00000000     151.00000000     151.00000000     151.00000000     151.00000000     151.00000000     151.00000000     151.00000000     151.00000000     151.00000000
         151.00000000     151.00000000     151.00000000     151.00000000     151.00000000     151.00000000     151.00000000     151.00000000     151.00000000     151.00000000     151.00000000
    INTERNAL  FACTOR  1.0
         151.00000000     151.00000000     151.00000000     151.00000000     151.00000000     151.00000000     151.00000000     151.00000000     151.00000000     151.00000000     151.00000000
         151.00000000     151.00000000     151.00000000     151.00000000     151.00000000     151.00000000     151.00000000     151.00000000     151.00000000     151.00000000     151.00000000
         151.00000000     151.00000000     151.00000000     151.00000000     151.00000000     151.00000000     151.00000000     151.00000000     151.00000000     151.00000000     151.00000000
         151.00000000     151.00000000     151.00000000     151.00000000     151.00000000     151.00000000     151.00000000     151.00000000     151.00000000     151.00000000     151.00000000
         151.00000000     151.00000000     151.00000000     151.00000000     151.00000000     151.00000000     151.00000000     151.00000000     151.00000000     151.00000000     151.00000000
         151.00000000     151.00000000     151.00000000     151.00000000     151.00000000     151.00000000     151.00000000     151.00000000     151.00000000     151.00000000     151.00000000
         151.00000000     151.00000000     151.00000000     151.00000000     151.00000000     151.00000000     151.00000000     151.00000000     151.00000000     151.00000000     151.00000000
         151.00000000     151.00000000     151.00000000     151.00000000     151.00000000     151.00000000     151.00000000     151.00000000     151.00000000     151.00000000     151.00000000
         151.00000000     151.00000000     151.00000000     151.00000000     151.00000000     151.00000000     151.00000000     151.00000000     151.00000000     151.00000000     151.00000000
         151.00000000     151.00000000     151.00000000     151.00000000     151.00000000     151.00000000     151.00000000     151.00000000     151.00000000     151.00000000     151.00000000
         151.00000000     151.00000000     151.00000000     151.00000000     151.00000000     151.00000000     151.00000000     151.00000000     151.00000000     151.00000000     151.00000000
         151.00000000     151.00000000     151.00000000     151.00000000     151.00000000     151.00000000     151.00000000     151.00000000     151.00000000     151.00000000     151.00000000
         151.00000000     151.00000000     151.00000000     151.00000000     151.00000000     151.00000000     151.00000000     151.00000000     151.00000000     151.00000000     151.00000000
         151.00000000     151.00000000     151.00000000     151.00000000     151.00000000     151.00000000     151.00000000     151.00000000     151.00000000     151.00000000     151.00000000
         151.00000000     151.00000000     151.00000000     151.00000000     151.00000000     151.00000000     151.00000000     151.00000000     151.00000000     151.00000000     151.00000000
         151.00000000     151.00000000     151.00000000     151.00000000     151.00000000     151.00000000     151.00000000     151.00000000     151.00000000     151.00000000     151.00000000
         151.00000000     151.00000000     151.00000000     151.00000000     151.00000000     151.00000000     151.00000000     151.00000000     151.00000000     151.00000000     151.00000000
         151.00000000     151.00000000     151.00000000     151.00000000     151.00000000     151.00000000     151.00000000     151.00000000     151.00000000     151.00000000     151.00000000
         151.00000000     151.00000000     151.00000000     151.00000000     151.00000000     151.00000000     151.00000000     151.00000000     151.00000000     151.00000000     151.00000000
         151.00000000     151.00000000     151.00000000     151.00000000     151.00000000     151.00000000     151.00000000     151.00000000     151.00000000     151.00000000     151.00000000
         151.00000000     151.00000000     151.00000000     151.00000000     151.00000000     151.00000000     151.00000000     151.00000000     151.00000000     151.00000000     151.00000000
         151.00000000     151.00000000     151.00000000     151.00000000     151.00000000     151.00000000     151.00000000     151.00000000     151.00000000     151.00000000     151.00000000
         151.00000000     151.00000000     151.00000000     151.00000000     151.00000000     151.00000000     151.00000000     151.00000000     151.00000000     151.00000000     151.00000000
         151.00000000     151.00000000     151.00000000     151.00000000     151.00000000     151.00000000     151.00000000     151.00000000     151.00000000     151.00000000     151.00000000
    INTERNAL  FACTOR  1.0
         151.00000000     151.00000000     151.00000000     151.00000000     151.00000000     151.00000000     151.00000000     151.00000000     151.00000000     151.00000000     151.00000000
         151.00000000     151.00000000     151.00000000     151.00000000     151.00000000     151.00000000     151.00000000     151.00000000     151.00000000     151.00000000     151.00000000
         151.00000000     151.00000000     151.00000000     151.00000000     151.00000000     151.00000000     151.00000000     151.00000000     151.00000000     151.00000000     151.00000000
         151.00000000     151.00000000     151.00000000     151.00000000     151.00000000     151.00000000     151.00000000     151.00000000     151.00000000     151.00000000     151.00000000
         151.00000000     151.00000000     151.00000000     151.00000000     151.00000000     151.00000000     151.00000000     151.00000000     151.00000000     151.00000000     151.00000000
         151.00000000     151.00000000     151.00000000     151.00000000     151.00000000     151.00000000     151.00000000     151.00000000     151.00000000     151.00000000     151.00000000
         151.00000000     151.00000000     151.00000000     151.00000000     151.00000000     151.00000000     151.00000000     151.00000000     151.00000000     151.00000000     151.00000000
         151.00000000     151.00000000     151.00000000     151.00000000     151.00000000     151.00000000     151.00000000     151.00000000     151.00000000     151.00000000     151.00000000
         151.00000000     151.00000000     151.00000000     151.00000000     151.00000000     151.00000000     151.00000000     151.00000000     151.00000000     151.00000000     151.00000000
         151.00000000     151.00000000     151.00000000     151.00000000     151.00000000     151.00000000     151.00000000     151.00000000     151.00000000     151.00000000     151.00000000
         151.00000000     151.00000000     151.00000000     151.00000000     151.00000000     151.00000000     151.00000000     151.00000000     151.00000000     151.00000000     151.00000000
         151.00000000     151.00000000     151.00000000     151.00000000     151.00000000     151.00000000     151.00000000     151.00000000     151.00000000     151.00000000     151.00000000
         151.00000000     151.00000000     151.00000000     151.00000000     151.00000000     151.00000000     151.00000000     151.00000000     151.00000000     151.00000000     151.00000000
         151.00000000     151.00000000     151.00000000     151.00000000     151.00000000     151.00000000     151.00000000     151.00000000     151.00000000     151.00000000     151.00000000
         151.00000000     151.00000000     151.00000000     151.00000000     151.00000000     151.00000000     151.00000000     151.00000000     151.00000000     151.00000000     151.00000000
         151.00000000     151.00000000     151.00000000     151.00000000     151.00000000     151.00000000     151.00000000     151.00000000     151.00000000     151.00000000     151.00000000
         151.00000000     151.00000000     151.00000000     151.00000000     151.00000000     151.00000000     151.00000000     151.00000000     151.00000000     151.00000000     151.00000000
         151.00000000     151.00000000     151.00000000     151.00000000     151.00000000     151.00000000     151.00000000     151.00000000     151.00000000     151.00000000     151.00000000
         151.00000000     151.00000000     151.00000000     151.00000000     151.00000000     151.00000000     151.00000000     151.00000000     151.00000000     151.00000000     151.00000000
         151.00000000     151.00000000     151.00000000     151.00000000     151.00000000     151.00000000     151.00000000     151.00000000     151.00000000     151.00000000     151.00000000
         151.00000000     151.00000000     151.00000000     151.00000000     151.00000000     151.00000000     151.00000000     151.00000000     151.00000000     151.00000000     151.00000000
         151.00000000     151.00000000     151.00000000     151.00000000     151.00000000     151.00000000     151.00000000     151.00000000     151.00000000     151.00000000     151.00000000
         151.00000000     151.00000000     151.00000000     151.00000000     151.00000000     151.00000000     151.00000000     151.00000000     151.00000000     151.00000000     151.00000000
         151.00000000     151.00000000     151.00000000     151.00000000     151.00000000     151.00000000     151.00000000     151.00000000     151.00000000     151.00000000     151.00000000
    INTERNAL  FACTOR  1.0
         151.00000000     151.00000000     151.00000000     151.00000000     151.00000000     151.00000000     151.00000000     151.00000000     151.00000000     151.00000000     151.00000000
         151.00000000     151.00000000     151.00000000     151.00000000     151.00000000     151.00000000     151.00000000     151.00000000     151.00000000     151.00000000     151.00000000
         151.00000000     151.00000000     151.00000000     151.00000000     151.00000000     151.00000000     151.00000000     151.00000000     151.00000000     151.00000000     151.00000000
         151.00000000     151.00000000     151.00000000     151.00000000     151.00000000     151.00000000     151.00000000     151.00000000     151.00000000     151.00000000     151.00000000
         151.00000000     151.00000000     151.00000000     151.00000000     151.00000000     151.00000000     151.00000000     151.00000000     151.00000000     151.00000000     151.00000000
         151.00000000     151.00000000     151.00000000     151.00000000     151.00000000     151.00000000     151.00000000     151.00000000     151.00000000     151.00000000     151.00000000
         151.00000000     151.00000000     151.00000000     151.00000000     151.00000000     151.00000000     151.00000000     151.00000000     151.00000000     151.00000000     151.00000000
         151.00000000     151.00000000     151.00000000     151.00000000     151.00000000     151.00000000     151.00000000     151.00000000     151.00000000     151.00000000     151.00000000
         151.00000000     151.00000000     151.00000000     151.00000000     151.00000000     151.00000000     151.00000000     151.00000000     151.00000000     151.00000000     151.00000000
         151.00000000     151.00000000     151.00000000     151.00000000     151.00000000     151.00000000     151.00000000     151.00000000     151.00000000     151.00000000     151.00000000
         151.00000000     151.00000000     151.00000000     151.00000000     151.00000000     151.00000000     151.00000000     151.00000000     151.00000000     151.00000000     151.00000000
         151.00000000     151.00000000     151.00000000     151.00000000     151.00000000     151.00000000     151.00000000     151.00000000     151.00000000     151.00000000     151.00000000
         151.00000000     151.00000000     151.00000000     151.00000000     151.00000000     151.00000000     151.00000000     151.00000000     151.00000000     151.00000000     151.00000000
         151.00000000     151.00000000     151.00000000     151.00000000     151.00000000     151.00000000     151.00000000     151.00000000     151.00000000     151.00000000     151.00000000
         151.00000000     151.00000000     151.00000000     151.00000000     151.00000000     151.00000000     151.00000000     151.00000000     151.00000000     151.00000000     151.00000000
         151.00000000     151.00000000     151.00000000     151.00000000     151.00000000     151.00000000     151.00000000     151.00000000     151.00000000     151.00000000     151.00000000
         151.00000000     151.00000000     151.00000000     151.00000000     151.00000000     151.00000000     151.00000000     151.00000000     151.00000000     151.00000000     151.00000000
         151.00000000     151.00000000     151.00000000     151.00000000     151.00000000     151.00000000     151.00000000     151.00000000     151.00000000     151.00000000     151.00000000
         151.00000000     151.00000000     151.00000000     151.00000000     151.00000000     151.00000000     151.00000000     151.00000000     151.00000000     151.00000000     151.00000000
         151.00000000     151.00000000     151.00000000     151.00000000     151.00000000     151.00000000     151.00000000     151.00000000     151.00000000     151.00000000     151.00000000
         151.00000000     151.00000000     151.00000000     151.00000000     151.00000000     151.00000000     151.00000000     151.00000000     151.00000000     151.00000000     151.00000000
         151.00000000     151.00000000     151.00000000     151.00000000     151.00000000     151.00000000     151.00000000     151.00000000     151.00000000     151.00000000     151.00000000
         151.00000000     151.00000000     151.00000000     151.00000000     151.00000000     151.00000000     151.00000000     151.00000000     151.00000000     151.00000000     151.00000000
         151.00000000     151.00000000     151.00000000     151.00000000     151.00000000     151.00000000     151.00000000     151.00000000     151.00000000     151.00000000     151.00000000
    INTERNAL  FACTOR  1.0
         151.00000000     151.00000000     151.00000000     151.00000000     151.00000000     151.00000000     151.00000000     151.00000000     151.00000000     151.00000000     151.00000000
         151.00000000     151.00000000     151.00000000     151.00000000     151.00000000     151.00000000     151.00000000     151.00000000     151.00000000     151.00000000     151.00000000
         151.00000000     151.00000000     151.00000000     151.00000000     151.00000000     151.00000000     151.00000000     151.00000000     151.00000000     151.00000000     151.00000000
         151.00000000     151.00000000     151.00000000     151.00000000     151.00000000     151.00000000     151.00000000     151.00000000     151.00000000     151.00000000     151.00000000
         151.00000000     151.00000000     151.00000000     151.00000000     151.00000000     151.00000000     151.00000000     151.00000000     151.00000000     151.00000000     151.00000000
         151.00000000     151.00000000     151.00000000     151.00000000     151.00000000     151.00000000     151.00000000     151.00000000     151.00000000     151.00000000     151.00000000
         151.00000000     151.00000000     151.00000000     151.00000000     151.00000000     151.00000000     151.00000000     151.00000000     151.00000000     151.00000000     151.00000000
         151.00000000     151.00000000     151.00000000     151.00000000     151.00000000     151.00000000     151.00000000     151.00000000     151.00000000     151.00000000     151.00000000
         151.00000000     151.00000000     151.00000000     151.00000000     151.00000000     151.00000000     151.00000000     151.00000000     151.00000000     151.00000000     151.00000000
         151.00000000     151.00000000     151.00000000     151.00000000     151.00000000     151.00000000     151.00000000     151.00000000     151.00000000     151.00000000     151.00000000
         151.00000000     151.00000000     151.00000000     151.00000000     151.00000000     151.00000000     151.00000000     151.00000000     151.00000000     151.00000000     151.00000000
         151.00000000     151.00000000     151.00000000     151.00000000     151.00000000     151.00000000     151.00000000     151.00000000     151.00000000     151.00000000     151.00000000
         151.00000000     151.00000000     151.00000000     151.00000000     151.00000000     151.00000000     151.00000000     151.00000000     151.00000000     151.00000000     151.00000000
         151.00000000     151.00000000     151.00000000     151.00000000     151.00000000     151.00000000     151.00000000     151.00000000     151.00000000     151.00000000     151.00000000
         151.00000000     151.00000000     151.00000000     151.00000000     151.00000000     151.00000000     151.00000000     151.00000000     151.00000000     151.00000000     151.00000000
         151.00000000     151.00000000     151.00000000     151.00000000     151.00000000     151.00000000     151.00000000     151.00000000     151.00000000     151.00000000     151.00000000
         151.00000000     151.00000000     151.00000000     151.00000000     151.00000000     151.00000000     151.00000000     151.00000000     151.00000000     151.00000000     151.00000000
         151.00000000     151.00000000     151.00000000     151.00000000     151.00000000     151.00000000     151.00000000     151.00000000     151.00000000     151.00000000     151.00000000
         151.00000000     151.00000000     151.00000000     151.00000000     151.00000000     151.00000000     151.00000000     151.00000000     151.00000000     151.00000000     151.00000000
         151.00000000     151.00000000     151.00000000     151.00000000     151.00000000     151.00000000     151.00000000     151.00000000     151.00000000     151.00000000     151.00000000
         151.00000000     151.00000000     151.00000000     151.00000000     151.00000000     151.00000000     151.00000000     151.00000000     151.00000000     151.00000000     151.00000000
         151.00000000     151.00000000     151.00000000     151.00000000     151.00000000     151.00000000     151.00000000     151.00000000     151.00000000     151.00000000     151.00000000
         151.00000000     151.00000000     151.00000000     151.00000000     151.00000000     151.00000000     151.00000000     151.00000000     151.00000000     151.00000000     151.00000000
         151.00000000     151.00000000     151.00000000     151.00000000     151.00000000     151.00000000     151.00000000     151.00000000     151.00000000     151.00000000     151.00000000
END griddata

