# File generated by Flopy version 3.9.2 on 09/17/2025 at 18:31:07.
BEGIN options
  SAVE_FLOWS
END options

BEGIN dimensions
  MAXBOUND  11
END dimensions

BEGIN period  1
  1 7 1 151
  1 7 2 151
  1 7 3 151
  1 7 4 151
  1 7 5 151
  1 7 6 151
  1 7 7 151
  1 7 8 151
  1 7 9 151
  1 7 10 151
  1 7 11 151
END period  1

BEGIN period  2
  1 7 1 151
  1 7 2 151
  1 7 3 151
  1 7 4 151
  1 7 5 151
  1 7 6 151
  1 7 7 151
  1 7 8 151
  1 7 9 151
  1 7 10 151
  1 7 11 151
END period  2

BEGIN period  3
  1 7 1 151
  1 7 2 151
  1 7 3 151
  1 7 4 151
  1 7 5 151
  1 7 6 151
  1 7 7 151
  1 7 8 151
  1 7 9 151
  1 7 10 151
  1 7 11 151
END period  3

BEGIN period  4
  1 7 1 151
  1 7 2 151
  1 7 3 151
  1 7 4 151
  1 7 5 151
  1 7 6 151
  1 7 7 151
  1 7 8 151
  1 7 9 151
  1 7 10 151
  1 7 11 151
END period  4

