# File generated by Flopy version 3.9.2 on 02/19/2025 at 15:08:29.
BEGIN options
END options

BEGIN packages
  DIS6  example03_twolayer.dis  dis
  IC6  example03_twolayer.ic  ic
  NPF6  example03_twolayer.npf  npf
  STO6  example03_twolayer.sto  sto
  CHD6  example03_twolayer.chd  chd_0
  WEL6  example03_twolayer.wel  wel_0
  RCH6  example03_twolayer.rcha  rcha_0
  OC6  example03_twolayer.oc  oc
END packages

