# File generated by Flopy version 3.9.2 on 02/19/2025 at 15:08:29.
BEGIN options
END options

BEGIN dimensions
  MAXBOUND  6
END dimensions

BEGIN period  1
  1 22 6 -1.00000000E-02
  2 22 6 -1.00000000E-02
  4 15 7 -1.00000000E-02
  5 15 7 -1.00000000E-02
  4 5 7 -1.00000000E-02
  5 5 7 -1.00000000E-02
END period  1

BEGIN period  2
  1 22 6 -5.00000000E+06
  2 22 6 -5.00000000E+06
  4 15 7 -1.00000000E-01
  5 15 7 -1.00000000E-01
  4 5 7 -1.00000000E-01
  5 5 7 -1.00000000E-01
END period  2

BEGIN period  3
  1 22 6 -5.00000000E+06
  2 22 6 -5.00000000E+06
  4 15 7 -8.00000000E+06
  5 15 7 -8.00000000E+06
  4 5 7 -1.00000000E-01
  5 5 7 -1.00000000E-01
END period  3

BEGIN period  4
  1 22 6 -5.00000000E+06
  2 22 6 -5.00000000E+06
  4 15 7 -8.00000000E+06
  5 15 7 -8.00000000E+06
  4 5 7 -3.00000000E+06
  5 5 7 -5.00000000E+06
END period  4

