# File generated by Flopy version 3.9.2 on 09/17/2025 at 18:31:07.
BEGIN options
  BUDGET  FILEOUT  example_3.cbb
  HEAD  FILEOUT  example_3.hds
END options

BEGIN period  1
  SAVE  HEAD  ALL
  SAVE  BUDGET  ALL
  PRINT  HEAD  LAST
END period  1

