# File generated by Flopy version 3.9.2 on 02/19/2025 at 15:11:34.
BEGIN options
END options

BEGIN dimensions
  NLAY  5
  NROW  24
  NCOL  11
END dimensions

BEGIN griddata
  delr
    CONSTANT    1000.00000000
  delc
    CONSTANT    1000.00000000
  top
    CONSTANT     180.00000000
  botm  LAYERED
    CONSTANT     125.00000000
    CONSTANT      65.00000000
    CONSTANT      60.00000000
    CONSTANT      25.00000000
    CONSTANT       0.00000000
END griddata

