# File generated by Flopy version 3.9.2 on 02/19/2025 at 15:08:29.
BEGIN options
  TIME_UNITS  years
END options

BEGIN dimensions
  NPER  4
END dimensions

BEGIN perioddata
      30.00000000  30       1.00000000
      30.00000000  30       1.00000000
      30.00000000  30       1.00000000
      30.00000000  30       1.00000000
END perioddata

