# File generated by Flopy version 3.9.2 on 02/19/2025 at 15:08:29.
BEGIN options
  BUDGET  FILEOUT  example03_twolayer.cbb
  HEAD  FILEOUT  example03_twolayer.hds
END options

BEGIN period  1
  SAVE  HEAD  ALL
  SAVE  BUDGET  ALL
  PRINT  HEAD  LAST
END period  1

