# File generated by Flopy version 3.3.6 on 08/22/2024 at 22:35:37.
BEGIN options
  XT3D_OFF
END options

BEGIN griddata
  alh
    CONSTANT       0.10000000
  ath1
    CONSTANT       0.10000000
END griddata

