# File generated by Flopy version 3.3.6 on 08/22/2024 at 22:35:37.
BEGIN griddata
  strt
    CONSTANT       0.00000000
END griddata

