# File generated by Flopy version 3.9.2 on 09/17/2025 at 18:31:03.
BEGIN options
  TIME_UNITS  years
END options

BEGIN dimensions
  NPER  1
END dimensions

BEGIN perioddata
       1.00000000  1       1.00000000
END perioddata

