# File generated by Flopy version 3.9.2 on 02/19/2025 at 15:11:28.
BEGIN options
END options

BEGIN dimensions
  NLAY  1
  NROW  11
  NCOL  11
END dimensions

BEGIN griddata
  delr
    CONSTANT    1000.00000000
  delc
    CONSTANT    1000.00000000
  top
    CONSTANT     100.00000000
  botm
    CONSTANT    -900.00000000
END griddata

