# File generated by Flopy version 3.9.2 on 02/19/2025 at 15:11:28.
BEGIN options
  COMPLEXITY  simple
END options

