# File generated by Flopy version 3.9.2 on 02/19/2025 at 15:11:28.
BEGIN options
END options

BEGIN dimensions
  MAXBOUND  1
END dimensions

BEGIN period  1
  1 6 6 -2.11400000E+09
END period  1

