# File generated by Flopy version 3.9.2 on 09/17/2025 at 18:31:03.
BEGIN options
END options

BEGIN dimensions
  MAXBOUND  1
END dimensions

BEGIN period  1
  1 6 6 -2.11400000E+09
END period  1

