# File generated by Flopy version 3.9.2 on 07/18/2025 at 16:45:56.
BEGIN options
  BUDGET  FILEOUT  example02_obleo.cbb
  HEAD  FILEOUT  example02_obleo.hds
END options

BEGIN period  1
  SAVE  HEAD  ALL
  SAVE  BUDGET  ALL
  PRINT  HEAD  LAST
END period  1

