# File generated by Flopy version 3.9.2 on 02/19/2025 at 15:11:28.
BEGIN options
  TIME_UNITS  years
END options

BEGIN dimensions
  NPER  1
END dimensions

BEGIN perioddata
       1.00000000  1       1.00000000
END perioddata

