# File generated by Flopy version 3.9.2 on 09/17/2025 at 18:31:03.
BEGIN options
  READASARRAYS
END options

BEGIN period  1
  recharge
    INTERNAL  FACTOR  1.0
         0.25000000       0.25000000       0.25000000       0.25000000       0.25000000       0.25000000       0.25000000       0.25000000       0.25000000       0.25000000       0.25000000
         0.25000000       0.25000000       0.25000000       0.25000000       0.25000000       0.25000000       0.25000000       0.25000000       0.25000000       0.25000000       0.25000000
         0.25000000       0.25000000       0.25000000       0.25000000       0.25000000       0.25000000       0.25000000       0.25000000       0.25000000       0.25000000       0.25000000
         0.25000000       0.25000000       0.25000000       0.25000000       0.25000000       0.25000000       0.25000000       0.25000000       0.25000000       0.25000000       0.25000000
         0.25000000       0.25000000       0.25000000       0.25000000       0.25000000       0.25000000       0.25000000       0.25000000       0.25000000       0.25000000       0.25000000
         0.25000000       0.25000000       0.25000000       0.25000000       0.25000000       0.25000000       0.25000000       0.25000000       0.25000000       0.25000000       0.25000000
         0.25000000       0.25000000       0.25000000       0.25000000       0.25000000       0.25000000       0.25000000       0.25000000       0.25000000       0.25000000       0.25000000
         0.25000000       0.25000000       0.25000000       0.25000000       0.25000000       0.25000000       0.25000000       0.25000000       0.25000000       0.25000000       0.25000000
         0.25000000       0.25000000       0.25000000       0.25000000       0.25000000       0.25000000       0.25000000       0.25000000       0.25000000       0.25000000       0.25000000
         0.25000000       0.25000000       0.25000000       0.25000000       0.25000000       0.25000000       0.25000000       0.25000000       0.25000000       0.25000000       0.25000000
         0.25000000       0.25000000       0.25000000       0.25000000       0.25000000       0.25000000       0.25000000       0.25000000       0.25000000       0.25000000       0.25000000
END period  1

