# File generated by Flopy version 3.9.2 on 07/18/2025 at 16:45:56.
BEGIN options
END options

BEGIN packages
  DIS6  example02_obleo.dis  dis
  IC6  example02_obleo.ic  ic
  NPF6  example02_obleo.npf  npf
  CHD6  example02_obleo.chd  chd_0
  WEL6  example02_obleo.wel  wel_0
  RCH6  example02_obleo.rcha  rcha_0
  OC6  example02_obleo.oc  oc
END packages

