# File generated by Flopy version 3.9.2 on 09/17/2025 at 18:31:03.
BEGIN options
END options

BEGIN packages
  DIS6  example01_obleo.dis  dis
  IC6  example01_obleo.ic  ic
  NPF6  example01_obleo.npf  npf
  CHD6  example01_obleo.chd  chd_0
  WEL6  example01_obleo.wel  wel_0
  RCH6  example01_obleo.rcha  rcha_0
  OC6  example01_obleo.oc  oc
END packages

