# File generated by Flopy version 3.9.2 on 07/18/2025 at 16:45:56.
BEGIN options
  TIME_UNITS  years
END options

BEGIN dimensions
  NPER  1
END dimensions

BEGIN perioddata
       1.00000000  1       1.00000000
END perioddata

