# File generated by Flopy version 3.9.2 on 09/17/2025 at 18:31:04.
BEGIN options
  COMPLEXITY  simple
END options

