# File generated by Flopy version 3.9.2 on 09/17/2025 at 18:31:04.
BEGIN options
END options

BEGIN griddata
  iconvert
    CONSTANT  0
  ss
    CONSTANT  1.00000000E-05
  sy
    CONSTANT       0.25000000
END griddata

