# File generated by Flopy version 3.9.2 on 02/17/2025 at 16:45:19.
BEGIN options
END options

BEGIN packages
  DIS6  example_2.dis  dis
  IC6  example_2.ic  ic
  NPF6  example_2.npf  npf
  STO6  example_2.sto  sto
  CHD6  example_2.chd  chd_0
  WEL6  example_2.wel  wel_0
  RCH6  example_2.rcha  rcha_0
  OC6  example_2.oc  oc
END packages

