# File generated by Flopy version 3.9.2 on 02/19/2025 at 15:11:30.
BEGIN options
END options

BEGIN griddata
  iconvert
    CONSTANT  0
  ss
    CONSTANT  1.00000000E-05
  sy
    CONSTANT       0.25000000
END griddata

