# File generated by Flopy version 3.9.2 on 02/19/2025 at 15:11:30.
BEGIN options
  SAVE_FLOWS
END options

BEGIN dimensions
  MAXBOUND  22
END dimensions

BEGIN period  1
  1 1 1 0.00000000E+00
  1 1 11 0.00000000E+00
  1 2 1 0.00000000E+00
  1 2 11 0.00000000E+00
  1 3 1 0.00000000E+00
  1 3 11 0.00000000E+00
  1 4 1 0.00000000E+00
  1 4 11 0.00000000E+00
  1 5 1 0.00000000E+00
  1 5 11 0.00000000E+00
  1 6 1 0.00000000E+00
  1 6 11 0.00000000E+00
  1 7 1 0.00000000E+00
  1 7 11 0.00000000E+00
  1 8 1 0.00000000E+00
  1 8 11 0.00000000E+00
  1 9 1 0.00000000E+00
  1 9 11 0.00000000E+00
  1 10 1 0.00000000E+00
  1 10 11 0.00000000E+00
  1 11 1 0.00000000E+00
  1 11 11 0.00000000E+00
END period  1

BEGIN period  2
  1 1 1 0.00000000E+00
  1 1 11 0.00000000E+00
  1 2 1 0.00000000E+00
  1 2 11 0.00000000E+00
  1 3 1 0.00000000E+00
  1 3 11 0.00000000E+00
  1 4 1 0.00000000E+00
  1 4 11 0.00000000E+00
  1 5 1 0.00000000E+00
  1 5 11 0.00000000E+00
  1 6 1 0.00000000E+00
  1 6 11 0.00000000E+00
  1 7 1 0.00000000E+00
  1 7 11 0.00000000E+00
  1 8 1 0.00000000E+00
  1 8 11 0.00000000E+00
  1 9 1 0.00000000E+00
  1 9 11 0.00000000E+00
  1 10 1 0.00000000E+00
  1 10 11 0.00000000E+00
  1 11 1 0.00000000E+00
  1 11 11 0.00000000E+00
END period  2

BEGIN period  3
  1 1 1 0.00000000E+00
  1 1 11 0.00000000E+00
  1 2 1 0.00000000E+00
  1 2 11 0.00000000E+00
  1 3 1 0.00000000E+00
  1 3 11 0.00000000E+00
  1 4 1 0.00000000E+00
  1 4 11 0.00000000E+00
  1 5 1 0.00000000E+00
  1 5 11 0.00000000E+00
  1 6 1 0.00000000E+00
  1 6 11 0.00000000E+00
  1 7 1 0.00000000E+00
  1 7 11 0.00000000E+00
  1 8 1 0.00000000E+00
  1 8 11 0.00000000E+00
  1 9 1 0.00000000E+00
  1 9 11 0.00000000E+00
  1 10 1 0.00000000E+00
  1 10 11 0.00000000E+00
  1 11 1 0.00000000E+00
  1 11 11 0.00000000E+00
END period  3

