# File generated by Flopy version 3.9.2 on 02/17/2025 at 16:45:19.
BEGIN options
END options

BEGIN dimensions
  MAXBOUND  1
END dimensions

BEGIN period  1
  1 6 6 0.00000000E+00
END period  1

BEGIN period  2
  1 6 6 -1.00000000E+09
END period  2

BEGIN period  3
  1 6 6 -2.11500000E+09
END period  3

