# File generated by Flopy version 3.9.2 on 09/17/2025 at 18:31:04.
BEGIN options
END options

BEGIN packages
  DIS6  example02_obleo.dis  dis
  IC6  example02_obleo.ic  ic
  NPF6  example02_obleo.npf  npf
  STO6  example02_obleo.sto  sto
  CHD6  example02_obleo.chd  chd_0
  WEL6  example02_obleo.wel  wel_0
  RCH6  example02_obleo.rcha  rcha_0
  OC6  example02_obleo.oc  oc
END packages

