# File generated by Flopy version 3.9.2 on 02/17/2025 at 16:45:19.
BEGIN options
  SAVE_FLOWS
END options

BEGIN griddata
  icelltype
    CONSTANT  1
  k
    INTERNAL  FACTOR  1.0
      3650.00000000    3650.00000000    3650.00000000    3650.00000000    3650.00000000    3650.00000000    3650.00000000    3650.00000000    3650.00000000    3650.00000000    3650.00000000
      3650.00000000    3650.00000000    3650.00000000    3650.00000000    3650.00000000    3650.00000000    3650.00000000    3650.00000000    3650.00000000    3650.00000000    3650.00000000
      3650.00000000    3650.00000000    3650.00000000    3650.00000000    3650.00000000    3650.00000000    3650.00000000    3650.00000000    3650.00000000    3650.00000000    3650.00000000
      3650.00000000    3650.00000000    3650.00000000    3650.00000000    3650.00000000    3650.00000000    3650.00000000    3650.00000000    3650.00000000    3650.00000000    3650.00000000
      3650.00000000    3650.00000000    3650.00000000    3650.00000000    3650.00000000    3650.00000000    3650.00000000    3650.00000000    3650.00000000    3650.00000000    3650.00000000
      3650.00000000    3650.00000000    3650.00000000    3650.00000000    3650.00000000    3650.00000000    3650.00000000    3650.00000000    3650.00000000    3650.00000000    3650.00000000
      3650.00000000    3650.00000000    3650.00000000    3650.00000000    3650.00000000    3650.00000000    3650.00000000    3650.00000000    3650.00000000    3650.00000000    3650.00000000
      3650.00000000    3650.00000000    3650.00000000    3650.00000000    3650.00000000    3650.00000000    3650.00000000    3650.00000000    3650.00000000    3650.00000000    3650.00000000
      3650.00000000    3650.00000000    3650.00000000    3650.00000000    3650.00000000    3650.00000000    3650.00000000    3650.00000000    3650.00000000    3650.00000000    3650.00000000
      3650.00000000    3650.00000000    3650.00000000    3650.00000000    3650.00000000    3650.00000000    3650.00000000    3650.00000000    3650.00000000    3650.00000000    3650.00000000
      3650.00000000    3650.00000000    3650.00000000    3650.00000000    3650.00000000    3650.00000000    3650.00000000    3650.00000000    3650.00000000    3650.00000000    3650.00000000
END griddata

