# File generated by Flopy version 3.9.2 on 02/17/2025 at 16:45:19.
BEGIN options
  TIME_UNITS  years
END options

BEGIN dimensions
  NPER  3
END dimensions

BEGIN perioddata
       1.00000000  1       1.00000000
      30.00000000  30       1.00000000
      30.00000000  30       1.00000000
END perioddata

