# File generated by Flopy version 3.9.2 on 09/17/2025 at 18:31:04.
BEGIN options
END options

BEGIN timing
  TDIS6  example02_obleo.tdis
END timing

BEGIN models
  gwf6  example02_obleo.nam  example02_obleo
END models

BEGIN exchanges
END exchanges

BEGIN solutiongroup  1
  ims6  example02_obleo.ims  example02_obleo
END solutiongroup  1

