# File generated by Flopy version 3.9.2 on 09/17/2025 at 20:55:10.
BEGIN options
  auxiliary  CONCENTRATION
END options

BEGIN dimensions
  MAXBOUND  6
END dimensions

BEGIN period  1
  1 1 5 1.00000000E+02 0.00000000E+00
  1 1 6 1.00000000E+02 0.00000000E+00
  1 1 7 1.00000000E+02 0.00000000E+00
  1 7 1 8.00000000E+01 0.00000000E+00
  1 7 2 8.00000000E+01 0.00000000E+00
  1 7 3 8.00000000E+01 0.00000000E+00
END period  1

