# File generated by Flopy version 3.9.2 on 09/17/2025 at 21:41:22.
BEGIN options
END options

BEGIN griddata
  iconvert
    CONSTANT  0
  ss
    CONSTANT  1.00000000E-05
  sy
    CONSTANT       0.15000000
END griddata

