# File generated by Flopy version 3.9.2 on 02/19/2025 at 15:26:15.
BEGIN options
  BUDGET  FILEOUT  gwf-mf6_moc1.bud
  HEAD  FILEOUT  gwf-mf6_moc1.hds
  HEAD  PRINT_FORMAT  COLUMNS  10  WIDTH  15  DIGITS  6  GENERAL
END options

BEGIN period  1
  SAVE  HEAD  LAST
  SAVE  BUDGET  LAST
  PRINT  HEAD  LAST
  PRINT  BUDGET  LAST
END period  1

