# File generated by Flopy version 3.9.2 on 11/06/2025 at 22:54:44.
BEGIN options
  SAVE_FLOWS
END options

BEGIN packages
  DIS6  gwf-mf6_moc1.dis  dis
  IC6  gwf-mf6_moc1.ic  ic
  NPF6  gwf-mf6_moc1.npf  npf
  STO6  gwf-mf6_moc1.sto  sto
  CHD6  gwf-mf6_moc1.chd  chd-1
  OC6  gwf-mf6_moc1.oc  oc
END packages

