# File generated by Flopy version 3.9.2 on 11/06/2025 at 22:54:44.
BEGIN options
  SAVE_SPECIFIC_DISCHARGE
END options

BEGIN griddata
  icelltype
    CONSTANT  0
  k
    INTERNAL  FACTOR  1.0
         0.00500000       0.00500000       0.00500000       0.00500000       0.00500000       0.00500000       0.00500000
         0.00500000       0.00500000       0.00500000       0.00500000       0.00500000       0.00500000       0.00500000
         0.00500000       0.00500000       0.00500000       0.00500000       0.00500000       0.00500000       0.00500000
         0.00500000       0.00500000       0.00500000       0.00500000       0.00500000       0.00500000       0.00500000
         0.00500000       0.00500000       0.00500000       0.00500000       0.00500000       0.00500000       0.00500000
         0.00500000       0.00500000       0.00500000       0.00500000       0.00500000       0.00500000       0.00500000
         0.00500000       0.00500000       0.00500000       0.00500000       0.00500000       0.00500000       0.00500000
  k33
    INTERNAL  FACTOR  1.0
         0.00500000       0.00500000       0.00500000       0.00500000       0.00500000       0.00500000       0.00500000
         0.00500000       0.00500000       0.00500000       0.00500000       0.00500000       0.00500000       0.00500000
         0.00500000       0.00500000       0.00500000       0.00500000       0.00500000       0.00500000       0.00500000
         0.00500000       0.00500000       0.00500000       0.00500000       0.00500000       0.00500000       0.00500000
         0.00500000       0.00500000       0.00500000       0.00500000       0.00500000       0.00500000       0.00500000
         0.00500000       0.00500000       0.00500000       0.00500000       0.00500000       0.00500000       0.00500000
         0.00500000       0.00500000       0.00500000       0.00500000       0.00500000       0.00500000       0.00500000
END griddata

