# File generated by Flopy version 3.9.2 on 09/17/2025 at 21:27:10.
BEGIN options
END options

BEGIN griddata
  alh
    CONSTANT      90.00000000
  ath1
    CONSTANT      27.00000000
END griddata

