# File generated by Flopy version 3.9.2 on 11/04/2025 at 22:28:33.
BEGIN options
END options

BEGIN griddata
  porosity
    CONSTANT       0.30000000
END griddata

