# File generated by Flopy version 3.9.2 on 11/04/2025 at 22:28:33.
BEGIN options
  PRINT_FLOWS
END options

BEGIN sources
  CHD-1  AUX  CONCENTRATION
END sources

