# File generated by Flopy version 3.9.2 on 02/19/2025 at 15:26:15.
BEGIN options
  SAVE_FLOWS
END options

BEGIN packages
  DIS6  gwt-mf6_moc1.dis  dis
  IC6  gwt-mf6_moc1.ic  ic
  ADV6  gwt-mf6_moc1.adv  adv
  DSP6  gwt-mf6_moc1.dsp  dsp
  MST6  gwt-mf6_moc1.mst  mst
  SSM6  gwt-mf6_moc1.ssm  ssm
  OC6  gwt-mf6_moc1.oc  oc
END packages

