# File generated by Flopy version 3.9.2 on 02/19/2025 at 15:26:15.
BEGIN options
END options

BEGIN griddata
  alh
    CONSTANT      90.00000000
  ath1
    CONSTANT      27.00000000
END griddata

