# File generated by Flopy version 3.9.2 on 09/17/2025 at 20:55:10.
BEGIN options
  SCHEME  tvd
END options

