# File generated by Flopy version 3.9.2 on 11/06/2025 at 22:54:44.
BEGIN options
END options

BEGIN griddata
  porosity
    CONSTANT       0.30000000
END griddata

