# File generated by Flopy version 3.9.2 on 11/06/2025 at 22:54:44.
BEGIN options
END options

BEGIN dimensions
  NLAY  1
  NROW  7
  NCOL  7
END dimensions

BEGIN griddata
  delr
    CONSTANT     900.00000000
  delc
    CONSTANT     900.00000000
  top
    CONSTANT       0.00000000
  botm
    CONSTANT     -20.00000000
  idomain
    INTERNAL  FACTOR  1
    1  1  1  1  1  1  1
    1  1  1  1  1  1  1
    1  1  1  1  1  1  1
    1  1  1  1  1  1  1
    1  1  1  1  1  1  1
    1  1  1  1  1  1  1
    1  1  1  1  1  1  1
END griddata

