# File generated by Flopy version 3.9.2 on 09/17/2025 at 20:55:10.
BEGIN options
END options

BEGIN griddata
  porosity
    CONSTANT       0.30000000
END griddata

