# File generated by Flopy version 3.9.2 on 09/17/2025 at 21:27:10.
BEGIN options
  PRINT_FLOWS
END options

BEGIN sources
  CHD-1  AUX  CONCENTRATION
END sources

