# File generated by Flopy version 3.9.2 on 11/06/2025 at 22:54:44.
BEGIN options
END options

BEGIN griddata
  alh
    CONSTANT      90.00000000
  ath1
    CONSTANT      27.00000000
END griddata

