# File generated by Flopy version 3.9.2 on 11/06/2025 at 22:54:44.
BEGIN options
END options

BEGIN timing
  TDIS6  sim-mf6_moc1.tdis
END timing

BEGIN models
  gwf6  gwf-mf6_moc1.nam  gwf-mf6_moc1
  gwt6  gwt-mf6_moc1.nam  gwt-mf6_moc1
END models

BEGIN exchanges
  GWF6-GWT6  mf6_moc1.gwfgwt  gwf-mf6_moc1  gwt-mf6_moc1
END exchanges

BEGIN solutiongroup  1
  ims6  gwf-mf6_moc1.ims  gwf-mf6_moc1
  ims6  gwt-mf6_moc1.ims  gwt-mf6_moc1
END solutiongroup  1

