# File generated by Flopy version 3.3.6 on 08/22/2024 at 22:35:37.
BEGIN options
END options

BEGIN dimensions
  MAXBOUND  1
END dimensions

BEGIN period  1
  1 1 122       1.00000000
END period  1

