# File generated by Flopy version 3.3.6 on 08/22/2024 at 22:35:37.
BEGIN options
  auxiliary  CONCENTRATION
END options

BEGIN dimensions
  MAXBOUND  1
END dimensions

BEGIN period  1
  1 1 1       0.00100000       1.00000000
END period  1

