# File generated by Flopy version 3.3.6 on 08/22/2024 at 22:35:37.
BEGIN options
  SAVE_FLOWS
END options

BEGIN packages
  DIS6  flow.dis  dis
  NPF6  flow.npf  npf
  IC6  flow.ic  ic
  CHD6  flow.chd  chd_0
  WEL6  flow.wel  wel-1
  OC6  flow.oc  oc
END packages

