# File generated by Flopy version 3.3.6 on 08/22/2024 at 22:35:37.
BEGIN options
  TIME_UNITS  seconds
END options

BEGIN dimensions
  NPER  1
END dimensions

BEGIN perioddata
     120.00000000  1       1.00000000
END perioddata

