{
 "cells": [
  {
   "cell_type": "markdown",
   "metadata": {},
   "source": [
    "# Transport Model using MT3DMS and USGS MOC (circa 1980s Example)\n",
    "\n",
    "This section recreates an example used in the orginal MOC model and described in some detail at [http://54.243.252.9/ce-5364-webroot/ce5364jupyterbook/_build/html/chapters/12.02usgsmocmodel/usgsmoc.html](http://54.243.252.9/ce-5364-webroot/ce5364jupyterbook/_build/html/chapters/12.02usgsmocmodel/usgsmoc.html)"
   ]
  },
  {
   "cell_type": "markdown",
   "metadata": {},
   "source": [
    "## Example 1:\n",
    "\n",
    "Alluvial valley with lakes as shown. Mountains are hydrogeologic barriers. Region is arid.\n",
    "\n",
    "Problem: Fuel spill at parking area near lake introduces contamination at 100 mg/l over area shown; How will plume spread over time?\n",
    "\n",
    "![](example1-area.png)"
   ]
  },
  {
   "cell_type": "markdown",
   "metadata": {},
   "source": [
    "### Conceptual model:\n",
    "\n",
    "- Assume 2D confined flow approximation is valid (small drawdowns compared to saturated thickness)\n",
    "- No pumping\n",
    "- Recharge = Evaporation (so net rainfall to aquifer is negligible)\n",
    "- Mountains are no-flow boundaries.\n",
    "\n",
    "Translate into a computational grid:\n",
    "\n",
    "![](concept2grid.png)\n",
    "\n",
    "Using the sketch above we can construct a MODFLOW6 Flow and Transport model to study the question. \n",
    "\n",
    ":::{note}\n",
    "Literally we will simply modify the working model already created to fit the situation.  If you end up doing these (models) a lot, much can be automated, but only a handful of people actually become modelers full time and once they get good they get promoted to supervisory roles so their skills can atrophy.\n",
    ":::"
   ]
  },
  {
   "cell_type": "code",
   "execution_count": 1,
   "metadata": {},
   "outputs": [],
   "source": [
    "%reset -f"
   ]
  },
  {
   "cell_type": "code",
   "execution_count": 2,
   "metadata": {},
   "outputs": [],
   "source": [
    "import warnings\n",
    "warnings.filterwarnings('ignore',category=DeprecationWarning)"
   ]
  },
  {
   "cell_type": "markdown",
   "metadata": {},
   "source": [
    ":::{note}\n",
    "The script generates a lot of output that are suppressed by a `;`  Comment the character out to re-enable full output (which is damn helpful for debugging the script!)\n",
    ":::\n",
    "\n",
    "## Initial setup\n",
    "\n",
    "Import dependencies, define the example name and workspace, and read settings from environment variables."
   ]
  },
  {
   "cell_type": "code",
   "execution_count": 3,
   "metadata": {},
   "outputs": [],
   "source": [
    "import os\n",
    "import pathlib as pl\n",
    "from pprint import pformat\n",
    "\n",
    "import flopy\n",
    "import git\n",
    "import matplotlib.pyplot as plt\n",
    "from matplotlib.colors import ListedColormap\n",
    "import numpy as np\n",
    "from flopy.plot.styles import styles\n",
    "from modflow_devtools.misc import get_env, timed\n",
    "import warnings\n",
    "warnings.filterwarnings('ignore',category=DeprecationWarning)"
   ]
  },
  {
   "cell_type": "markdown",
   "metadata": {},
   "source": [
    ":::{note}\n",
    "The code block above loads various modules into the environment; they must exist and be loaded into the kernel - if not you get a warning \"Module Not Found\" and will have to install into the kernel (i.e. `pip -m install module`, or the `conda` equivalent\n",
    "Filter warnings repeated to achieve \"for sure ...\" that the filter is applied.  By design the filter will not stop ERRORS, and warnings issued within functions will still display, but it will address one annoying deprecation error.\n",
    ":::\n",
    "\n",
    "### Define parameters\n",
    "\n",
    "Define model units, parameters and other settings."
   ]
  },
  {
   "cell_type": "code",
   "execution_count": 4,
   "metadata": {},
   "outputs": [],
   "source": [
    "# Model units\n",
    "length_units = \"feet\"\n",
    "time_units = \"seconds\"\n",
    "\n",
    "# Model parameters\n",
    "nlay = 1  # Number of layers\n",
    "nrow = 7  # Number of rows\n",
    "ncol = 7  # Number of columns\n",
    "delr = 900.0  # Column width ($ft$)\n",
    "delc = 900.0  # Row width ($ft$)\n",
    "delz = 20.0  # Layer thickness ($ft$)\n",
    "top = 0.0  # Top of the model ($ft$)\n",
    "prsity = 0.3  # Porosity\n",
    "k1 = 0.005  # Horiz. hyd. conductivity of medium grain material ($m/sec$)\n",
    "inj = 0.001  # Injection well rate ($ft^3/sec$) - no wells this model\n",
    "ext = -0.001  # Extraction well pumping rate ($ft^3/sec$) - no wells this model\n",
    "al = 90.0  # Longitudinal dispersivity ($ft$)\n",
    "trpt = 0.3  # Ratio of horiz. transverse to longitudinal dispersivity \n",
    "perlen = 2.0  # Simulation time ($years$)\n",
    "## Values above are same as conceptual model in figure \n",
    "\n",
    "# Additional model input\n",
    "hk = k1 * np.ones((nlay, nrow, ncol), dtype=float)\n",
    "#hk[:, 5:8, 1:8] = k2 only one layer type this case\n",
    "laytyp = icelltype = 0\n",
    "\n",
    "# Active model domain\n",
    "ibound = np.ones((nlay, nrow, ncol), dtype=int)\n",
    "ibound[0, 0, 4:7] = -1\n",
    "ibound[0, -1, 0:3] = -1\n",
    "idomain = np.ones((nlay, nrow, ncol), dtype=int)\n",
    "icbund = 1\n",
    "\n",
    "# Boundary conditions\n",
    "# MF2K5 pumping info\n",
    "qwell1 = 0.001\n",
    "qwell2 = -0.0189\n",
    "welspd = {0: [[0, 3, 6, qwell1], [0, 10, 6, qwell2]]}  # Well pumping info for MF2K5\n",
    "cwell1 = 0.0\n",
    "cwell0 = 0.0\n",
    "spd = {\n",
    "    0: [[0, 3, 6, cwell1, 2], [0, 10, 6, cwell0, 2]],\n",
    "    1: [[0, 3, 6, cwell0, 2], [0, 10, 6, cwell0, 2]],\n",
    "}  # Well info 4 MT3D\n",
    "# MF6 pumping information\n",
    "wellist_sp1 = []\n",
    "#                   (k,  i, j),   flow,  conc\n",
    "wellist_sp1.append([(0, 3, 6), qwell1, cwell1])  # Injection well\n",
    "wellist_sp1.append([(0, 10, 6), qwell2, cwell0])  # Pumping well\n",
    "#\n",
    "wellist_sp2 = []\n",
    "#                   (k,  i, j),   flow,  conc\n",
    "wellist_sp2.append([(0, 3, 6), qwell1, cwell0])  # Injection well\n",
    "wellist_sp2.append([(0, 10, 6), qwell2, cwell0])  # Pumping well\n",
    "spd_mf6 = {0: wellist_sp1, 1: wellist_sp2}\n",
    "\n",
    "# Transport related\n",
    "sconc = 0.0\n",
    "ath1 = al * trpt\n",
    "dmcoef = 90.0  # m^2/s\n",
    "# Time variables\n",
    "perlen = [365.0 * 86400, 365.0 * 86400]\n",
    "steady = [False, False]\n",
    "nper = len(perlen)\n",
    "nstp = [365, 365]\n",
    "tsmult = [1.0, 1.0]\n",
    "#\n",
    "sconc = 0.0\n",
    "c0 = 0.0\n",
    "botm = [top - delz]\n",
    "mixelm = -1\n",
    "\n",
    "# Solver settings\n",
    "nouter, ninner = 100, 300\n",
    "hclose, rclose, relax = 1e-6, 1e-6, 1.0\n",
    "percel = 1.0  # HMOC parameters\n",
    "itrack = 2\n",
    "wd = 0.5\n",
    "dceps = 1.0e-5\n",
    "nplane = 0\n",
    "npl = 0\n",
    "nph = 16\n",
    "npmin = 2\n",
    "npmax = 32\n",
    "dchmoc = 1.0e-3\n",
    "nlsink = nplane\n",
    "npsink = nph\n",
    "nadvfd = 1"
   ]
  },
  {
   "cell_type": "markdown",
   "metadata": {},
   "source": [
    "The code block above loads variables and constants to define the actual model.  We will focus on how to conceptualize later on.\n",
    "\n",
    ":::{admonition} **Assumption**\n",
    "I have assumed that the code surrounds the entire model domain with no-flow cells; it's what I would do in a general purpose program.  I don't know and the [MODFLOW6](https://pubs.usgs.gov/publication/tm6A57) report is kind of vague on the underlying technical approach; so I choose to make a guess and see how far I get - this is typical when learning how to operate a program, your mileage may vary\n",
    ":::\n",
    "\n",
    ":::{admonition} *Update*\n",
    "The model indeed surrounds the computation domain with the equivalent of no-flow conditions as per\n",
    "\n",
    "![](noflow.png)\n",
    "\n",
    "Descriped on pg. 41 of [Documentation for the MODFLOW 6 Groundwater Flow Model, Ch 55, Book A6](https://pubs.usgs.gov/tm/06/a55/tm6a55.pdf)\n",
    ":::"
   ]
  },
  {
   "cell_type": "code",
   "execution_count": 5,
   "metadata": {},
   "outputs": [
    {
     "data": {
      "text/plain": [
       "array([[[ 1,  1,  1,  1, -1, -1, -1],\n",
       "        [ 1,  1,  1,  1,  1,  1,  1],\n",
       "        [ 1,  1,  1,  1,  1,  1,  1],\n",
       "        [ 1,  1,  1,  1,  1,  1,  1],\n",
       "        [ 1,  1,  1,  1,  1,  1,  1],\n",
       "        [ 1,  1,  1,  1,  1,  1,  1],\n",
       "        [-1, -1, -1,  1,  1,  1,  1]]])"
      ]
     },
     "execution_count": 5,
     "metadata": {},
     "output_type": "execute_result"
    }
   ],
   "source": [
    "ibound"
   ]
  },
  {
   "cell_type": "markdown",
   "metadata": {
    "lines_to_next_cell": 2
   },
   "source": [
    "## Model setup\n",
    "\n",
    "Define functions to build models, write input files, and run the simulation.\n",
    "\n",
    "**Groundwater Flow Package Build**"
   ]
  },
  {
   "cell_type": "code",
   "execution_count": 6,
   "metadata": {},
   "outputs": [],
   "source": [
    "# Workspace and Executibles\n",
    "#binary = \"/home/sensei/ce-4363-webroot/ModflowExperimental/mf6-arm/mf6\"  # location on MY computer of the compiled modflow program\n",
    "#workarea = \"/home/sensei/ce-4363-webroot/ModflowExperimental/mf6-arm/mf6_moc1\" # location on MY computer to store files this example (directory must already exist)\n",
    "#workarea = workspace # location on MY computer to store files this example (directory must already exist)\n",
    "\n",
    "binary = \"/home/sensei/mfplayground/modflow-python/mf6.4.1_linux/bin/mf6\"  # location on AWS computer of the compiled modflow program\n",
    "workarea = \"/home/sensei/ce-5364-webroot/mfexperiments/mf6-ex2\" # location on MY computer to store files this example (directory must already exist)\n",
    "\n",
    "\n",
    "# Set Simulation Name(s)\n",
    "name = \"mf6_moc1\"\n",
    "gwfname = \"gwf-\" + name\n",
    "gwtname = \"gwt-\" + name\n",
    "\n",
    "##### FLOPY Build simulation framework ####\n",
    "sim = flopy.mf6.MFSimulation(\n",
    "    sim_name=\"sim-\" + name, exe_name=binary, version=\"mf6\", sim_ws=workarea\n",
    ")\n",
    "####### CREATED \"/home/sensei/ce-4363-webroot/ModflowExperimental/mf6-arm/mt3d_example9\""
   ]
  },
  {
   "cell_type": "markdown",
   "metadata": {},
   "source": [
    "The code block above sets paths to the binary (in my case a compiled MODFLOW6 object located at `/home/sensei/ce-4363-webroot/ModflowExperimental/mf6-arm/`.   The binary was built using the `make` utility operating on the `makefile` contained in `~path_to_source/mf6.4.1_linux/make`"
   ]
  },
  {
   "cell_type": "code",
   "execution_count": 7,
   "metadata": {},
   "outputs": [],
   "source": [
    "####### Instantiating MODFLOW 6 time discretization ########\n",
    "tdis_rc = []\n",
    "for i in range(nper):\n",
    "    tdis_rc.append((perlen[i], nstp[i], tsmult[i]))\n",
    "flopy.mf6.ModflowTdis(sim, nper=nper, perioddata=tdis_rc, time_units=time_units);\n",
    "## delete \";\" in above line at end to show full output"
   ]
  },
  {
   "cell_type": "markdown",
   "metadata": {},
   "source": [
    "The code block above sets the time stepping structure.  Units are supplied in the model constants already created. `perlen` is a list of period length in time units of a stress period. , `nstp` is a list of the number of time steps per period, tsmult is a list of time step multipliers."
   ]
  },
  {
   "cell_type": "code",
   "execution_count": 8,
   "metadata": {},
   "outputs": [],
   "source": [
    "####### Instantiating MODFLOW 6 groundwater flow model ########\n",
    "# Set Model Name (using same base name as the simulation)\n",
    "model_nam_file = \"{}.nam\".format(gwfname)\n",
    "# create MODFLOW6 flow model framework\n",
    "gwf = flopy.mf6.ModflowGwf(sim, modelname=gwfname, save_flows=True, model_nam_file=model_nam_file)\n",
    "## delete \";\" in above line at end to show full output"
   ]
  },
  {
   "cell_type": "markdown",
   "metadata": {},
   "source": [
    "The code block above sets prefix of the flow model file names.  "
   ]
  },
  {
   "cell_type": "code",
   "execution_count": 9,
   "metadata": {},
   "outputs": [],
   "source": [
    "###### Instantiating MODFLOW 6 solver for flow model #######\n",
    "# Set Iterative Model Solution (choose solver parameters)\n",
    "# about IMS see: https://water.usgs.gov/nrp/gwsoftware/ModelMuse/Help/sms_sparse_matrix_solution_pac.htm\n",
    "# using defaults see: https://flopy.readthedocs.io/en/3.3.2/source/flopy.mf6.modflow.mfims.html\n",
    "imsgwf = flopy.mf6.ModflowIms(\n",
    "    sim,\n",
    "    print_option=\"SUMMARY\",\n",
    "    outer_dvclose=hclose,\n",
    "    outer_maximum=nouter,\n",
    "    under_relaxation=\"NONE\",\n",
    "    inner_maximum=ninner,\n",
    "    inner_dvclose=hclose,\n",
    "    rcloserecord=rclose,\n",
    "    linear_acceleration=\"CG\",\n",
    "    scaling_method=\"NONE\",\n",
    "    reordering_method=\"NONE\",\n",
    "    relaxation_factor=relax,\n",
    "    filename=f\"{gwfname}.ims\",\n",
    "    )\n",
    "sim.register_ims_package(imsgwf, [gwf.name]);\n",
    "## delete \";\" in above line at end to show full output"
   ]
  },
  {
   "cell_type": "markdown",
   "metadata": {},
   "source": [
    "The code block above sets the iteration and solver parameters.  URL to documents is included in the comments."
   ]
  },
  {
   "cell_type": "code",
   "execution_count": 10,
   "metadata": {},
   "outputs": [],
   "source": [
    "###### Instantiating MODFLOW 6 discretization package ######\n",
    "flopy.mf6.ModflowGwfdis(\n",
    "    gwf,\n",
    "    length_units=length_units,\n",
    "    nlay=nlay,\n",
    "    nrow=nrow,\n",
    "    ncol=ncol,\n",
    "    delr=delr,\n",
    "    delc=delc,\n",
    "    top=top,\n",
    "    botm=botm,\n",
    "    idomain=idomain,\n",
    "    filename=f\"{gwfname}.dis\",\n",
    "    );\n",
    "## delete \";\" in above line at end to show full output"
   ]
  },
  {
   "cell_type": "markdown",
   "metadata": {},
   "source": [
    "The code block above sets the spatial structure.  We must supply layers, rows, columns, and spacing between rows and columns (i.e. how big is a pixel).  Vertical spacing computed as \n",
    "\n",
    "$$\\Delta z = \\frac{\\text{top}-\\text{bottom}}{\\text{number of layers}}$$"
   ]
  },
  {
   "cell_type": "code",
   "execution_count": 11,
   "metadata": {},
   "outputs": [
    {
     "data": {
      "text/plain": [
       "package_name = ic\n",
       "filename = gwf-mf6_moc1.ic\n",
       "package_type = ic\n",
       "model_or_simulation_package = model\n",
       "model_name = gwf-mf6_moc1\n",
       "\n",
       "Block griddata\n",
       "--------------------\n",
       "strt\n",
       "{internal}\n",
       "(array([[[  0.,   0.,   0.,   0., 100., 100., 100.],\n",
       "        [  0.,   0.,   0.,   0.,   0.,   0.,   0.],\n",
       "        [  0.,   0.,   0.,   0.,   0.,   0.,   0.],\n",
       "        [  0.,   0.,   0.,   0.,   0.,   0.,   0.],\n",
       "        [  0.,   0.,   0.,   0.,   0.,   0.,   0.],\n",
       "        [  0.,   0.,   0.,   0.,   0.,   0.,   0.],\n",
       "        [ 80.,  80.,  80.,   0.,   0.,   0.,   0.]]]))\n",
       "\n"
      ]
     },
     "execution_count": 11,
     "metadata": {},
     "output_type": "execute_result"
    }
   ],
   "source": [
    "###### Instantiating MODFLOW 6 initial conditions package for flow model #######\n",
    "strt = np.zeros((nlay, nrow, ncol), dtype=float)\n",
    "strt[0, 0, 4:7] = 100.0 # set top row t0 100\n",
    "xc = gwf.modelgrid.xcellcenters\n",
    "strt[0, -1, 0:3] = 80.0 # set bottom row to 80\n",
    "flopy.mf6.ModflowGwfic(gwf, strt=strt, filename=f\"{gwfname}.ic\")\n",
    "## delete \";\" in above line at end to show full output"
   ]
  },
  {
   "cell_type": "markdown",
   "metadata": {},
   "source": [
    "The code block above sets the initial conditions. The top row in this example is set to 100, the bottom row to 80.0.  If there are other starting conditions either write code or read from a file, or hard-code the constants as needed."
   ]
  },
  {
   "cell_type": "code",
   "execution_count": 12,
   "metadata": {},
   "outputs": [],
   "source": [
    "# Instantiating MODFLOW 6 node-property flow package\n",
    "flopy.mf6.ModflowGwfnpf(\n",
    "    gwf,\n",
    "    save_flows=False,\n",
    "    icelltype=icelltype,\n",
    "    k=hk,\n",
    "    k33=hk,\n",
    "    save_specific_discharge=True,\n",
    "    filename=f\"{gwfname}.npf\",\n",
    "    );\n",
    "## delete \";\" in above line at end to show full output"
   ]
  },
  {
   "cell_type": "markdown",
   "metadata": {},
   "source": [
    "The code block above sets the node-property data (its like the old BCF package).  Here we supply that we want to save sp. discharge (needed for transport), the k, and k33 values the same implies NOT unconfined sustem."
   ]
  },
  {
   "cell_type": "code",
   "execution_count": 13,
   "metadata": {},
   "outputs": [],
   "source": [
    "# Instantiate storage package\n",
    "sto = flopy.mf6.ModflowGwfsto(gwf, ss=1.0e-05);\n",
    "## delete \";\" in above line at end to show full output"
   ]
  },
  {
   "cell_type": "markdown",
   "metadata": {},
   "source": [
    "The code block above sets the storage properties for transient simulations."
   ]
  },
  {
   "cell_type": "code",
   "execution_count": 14,
   "metadata": {},
   "outputs": [],
   "source": [
    "# Instantiating MODFLOW 6 constant head package\n",
    "# MF6 constant head boundaries:\n",
    "chdspd = []\n",
    "# Loop through the top & bottom sides.\n",
    "for j in range(4,7):\n",
    "        #               l,  r, c,  head, conc\n",
    "    chdspd.append([(0, 0, j), 100.0, 0.0])  # Top boundary\n",
    "for j in range(0,3):\n",
    "    chdspd.append([(0, 6, j), 80.0, 0.0])  # Bottom boundary\n",
    "chdspd = {0: chdspd}\n",
    "\n",
    "flopy.mf6.ModflowGwfchd(\n",
    "    gwf,\n",
    "    maxbound=len(chdspd),\n",
    "    stress_period_data=chdspd,\n",
    "    save_flows=False,\n",
    "    auxiliary=\"CONCENTRATION\",\n",
    "    pname=\"CHD-1\",\n",
    "    filename=f\"{gwfname}.chd\",\n",
    "    );\n",
    "## delete \";\" in above line at end to show full output"
   ]
  },
  {
   "cell_type": "markdown",
   "metadata": {},
   "source": [
    "The code block above sets the constant head boundary conditions."
   ]
  },
  {
   "cell_type": "markdown",
   "metadata": {},
   "source": [
    ":::{note}\n",
    "I have intentionally supressed the well package for this example; it should still work because its MODULAR!\n",
    ":::\n"
   ]
  },
  {
   "cell_type": "raw",
   "metadata": {},
   "source": [
    "# Instantiate the wel package\n",
    "flopy.mf6.ModflowGwfwel(\n",
    "    gwf,\n",
    "    print_input=True,\n",
    "    print_flows=True,\n",
    "    stress_period_data=spd_mf6,\n",
    "    save_flows=False,\n",
    "    auxiliary=\"CONCENTRATION\",\n",
    "    pname=\"WEL-1\",\n",
    "    filename=f\"{gwfname}.wel\",\n",
    "    );\n",
    "## delete \";\" in above line at end to show full output"
   ]
  },
  {
   "cell_type": "code",
   "execution_count": 15,
   "metadata": {},
   "outputs": [],
   "source": [
    "# Instantiating MODFLOW 6 output control package for flow model\n",
    "flopy.mf6.ModflowGwfoc(\n",
    "    gwf,\n",
    "    head_filerecord=f\"{gwfname}.hds\",\n",
    "    budget_filerecord=f\"{gwfname}.bud\",\n",
    "    headprintrecord=[(\"COLUMNS\", 10, \"WIDTH\", 15, \"DIGITS\", 6, \"GENERAL\")],\n",
    "    saverecord=[(\"HEAD\", \"LAST\"), (\"BUDGET\", \"LAST\")],\n",
    "    printrecord=[(\"HEAD\", \"LAST\"), (\"BUDGET\", \"LAST\")],\n",
    "    );\n",
    "## delete \";\" in above line at end to show full output"
   ]
  },
  {
   "cell_type": "markdown",
   "metadata": {},
   "source": [
    "The code block above defines parts of output control."
   ]
  },
  {
   "cell_type": "markdown",
   "metadata": {},
   "source": [
    "\n",
    "\n",
    "**Transport Package Building**"
   ]
  },
  {
   "cell_type": "code",
   "execution_count": 16,
   "metadata": {},
   "outputs": [],
   "source": [
    "###### Instantiating MODFLOW 6 groundwater transport package ##########\n",
    "gwtname = \"gwt-\" + name\n",
    "gwt = flopy.mf6.MFModel(\n",
    "    sim,\n",
    "    model_type=\"gwt6\",\n",
    "    modelname=gwtname,\n",
    "    model_nam_file=f\"{gwtname}.nam\",\n",
    "    )#;\n",
    "## delete \";\" in above line at end to show full output\n",
    "gwt.name_file.save_flows = True"
   ]
  },
  {
   "cell_type": "markdown",
   "metadata": {},
   "source": [
    "The code block above sets prefix of the transport model file names.  "
   ]
  },
  {
   "cell_type": "code",
   "execution_count": 17,
   "metadata": {},
   "outputs": [],
   "source": [
    "# create iterative model solution and register the gwt model with it\n",
    "imsgwt = flopy.mf6.ModflowIms(\n",
    "    sim,\n",
    "    print_option=\"SUMMARY\",\n",
    "    outer_dvclose=hclose,\n",
    "    outer_maximum=nouter,\n",
    "    under_relaxation=\"NONE\",\n",
    "    inner_maximum=ninner,\n",
    "    inner_dvclose=hclose,\n",
    "    rcloserecord=rclose,\n",
    "    linear_acceleration=\"BICGSTAB\",\n",
    "    scaling_method=\"NONE\",\n",
    "    reordering_method=\"NONE\",\n",
    "    relaxation_factor=relax,\n",
    "    filename=f\"{gwtname}.ims\",\n",
    "    )\n",
    "sim.register_ims_package(imsgwt, [gwt.name])#;\n",
    "## delete \";\" in above line at end to show full output"
   ]
  },
  {
   "cell_type": "markdown",
   "metadata": {},
   "source": [
    "The code block above sets the iteration and solver parameters.  "
   ]
  },
  {
   "cell_type": "code",
   "execution_count": 18,
   "metadata": {},
   "outputs": [],
   "source": [
    "###### Instantiating MODFLOW 6 transport discretization package #####\n",
    "flopy.mf6.ModflowGwtdis(\n",
    "    gwt,\n",
    "    nlay=nlay,\n",
    "    nrow=nrow,\n",
    "    ncol=ncol,\n",
    "    delr=delr,\n",
    "    delc=delc,\n",
    "    top=top,\n",
    "    botm=botm,\n",
    "    idomain=idomain,\n",
    "    filename=f\"{gwtname}.dis\",\n",
    "    );\n",
    "## delete \";\" in above line at end to show full output"
   ]
  },
  {
   "cell_type": "markdown",
   "metadata": {},
   "source": [
    "The code block above sets the spatial structure.  We must supply layers, rows, columns, and spacing between rows and columns (i.e. how big is a pixel).  Vertical spacing computed as \n",
    "\n",
    "$$\\Delta z = \\frac{\\text{top}-\\text{bottom}}{\\text{number of layers}}$$\n",
    "\n",
    "Typically will be same as flow model."
   ]
  },
  {
   "cell_type": "code",
   "execution_count": 19,
   "metadata": {},
   "outputs": [
    {
     "data": {
      "text/plain": [
       "package_name = ic\n",
       "filename = gwt-mf6_moc1.ic\n",
       "package_type = ic\n",
       "model_or_simulation_package = model\n",
       "model_name = gwt-mf6_moc1\n",
       "\n",
       "Block griddata\n",
       "--------------------\n",
       "strt\n",
       "{internal}\n",
       "(array([[[  0.,   0.,   0.,   0.,   0.,   0.,   0.],\n",
       "        [  0.,   0.,   0., 100., 100., 100., 100.],\n",
       "        [  0.,   0.,   0.,   0.,   0.,   0.,   0.],\n",
       "        [  0.,   0.,   0.,   0.,   0.,   0.,   0.],\n",
       "        [  0.,   0.,   0.,   0.,   0.,   0.,   0.],\n",
       "        [  0.,   0.,   0.,   0.,   0.,   0.,   0.],\n",
       "        [  0.,   0.,   0.,   0.,   0.,   0.,   0.]]]))\n",
       "\n"
      ]
     },
     "execution_count": 19,
     "metadata": {},
     "output_type": "execute_result"
    }
   ],
   "source": [
    "# Instantiating MODFLOW 6 transport initial concentrations\n",
    "sconc = np.zeros((nlay, nrow, ncol), dtype=float)\n",
    "sconc[0, 1, 3:7] = 100.0 # set fuel spill row\n",
    "flopy.mf6.ModflowGwtic(gwt, strt=sconc, filename=f\"{gwtname}.ic\")\n",
    "## delete \";\" in above line at end to show full output"
   ]
  },
  {
   "cell_type": "markdown",
   "metadata": {},
   "source": [
    "Initial conditions (concentration) for transport."
   ]
  },
  {
   "cell_type": "code",
   "execution_count": 20,
   "metadata": {},
   "outputs": [],
   "source": [
    "    # Instantiating MODFLOW 6 transport advection package\n",
    "    if mixelm >= 0:\n",
    "        scheme = \"UPSTREAM\"\n",
    "    elif mixelm == -1:\n",
    "        scheme = \"TVD\"\n",
    "    else:\n",
    "        raise Exception()\n",
    "    flopy.mf6.ModflowGwtadv(gwt, scheme=scheme, filename=f\"{gwtname}.adv\");\n",
    "## delete \";\" in above line at end to show full output"
   ]
  },
  {
   "cell_type": "markdown",
   "metadata": {},
   "source": [
    "Advective transport methods.  In this example upwind formulation with Total Variation Diminishing (TVD) flux limiters. A TVD formulation is a numerical method designed to ensure that the computed solution to a transport equation does not exhibit non-physical oscillations or spurious oscillations, particularly near discontinuities or steep gradients. This flux limitation is crucial for maintaining the accuracy and stability of the numerical solution in simulations involving advective transport, such as contaminant transport in groundwater models.\n",
    "\n",
    "Key points about TVD formulations:\n",
    "\n",
    "- Purpose: TVD methods aim to prevent the introduction of oscillations or artifacts in the numerical solution that can arise from the discretization of the transport equation, especially in regions with sharp gradients or discontinuities.\n",
    "\n",
    "- Techniques: TVD schemes use various strategies to achieve this, including modifying the standard discretization approaches, using flux limiters, or applying specific numerical flux functions that ensure the total variation of the solution is not increased.\n",
    "\n",
    "- Applications: TVD methods are commonly used in computational fluid dynamics, meteorology, and environmental modeling where accurate representation of transport processes is essential. In groundwater modeling, TVD formulations help to ensure realistic simulation of contaminant transport and avoid numerical artifacts that could lead to incorrect predictions.\n",
    "\n",
    "- Examples: Common TVD schemes include the TVD Runge-Kutta methods, TVD Lax-Wendroff schemes, and various other high-resolution schemes that incorporate flux limiters or other modifications to ensure total variation diminishing properties."
   ]
  },
  {
   "cell_type": "code",
   "execution_count": 21,
   "metadata": {},
   "outputs": [],
   "source": [
    "# Instantiating MODFLOW 6 transport dispersion package\n",
    "if al != 0:\n",
    "    flopy.mf6.ModflowGwtdsp(\n",
    "        gwt,\n",
    "        alh=al, # longitudinal\n",
    "        ath1=ath1, # transverse\n",
    "        filename=f\"{gwtname}.dsp\",\n",
    "        );\n",
    "## delete \";\" in above line at end to show full output"
   ]
  },
  {
   "cell_type": "markdown",
   "metadata": {},
   "source": [
    "This code iniatiates the dispersion method with Longitudinal dispersivity  $a_l = 20.0~m$ and the ratio of horizontal transverse to longitudinal dispersivity $trpt = 0.2$  In the above script $a_t = trpt \\times a_l$"
   ]
  },
  {
   "cell_type": "code",
   "execution_count": 22,
   "metadata": {},
   "outputs": [],
   "source": [
    "# Instantiating MODFLOW 6 transport mass storage package\n",
    "flopy.mf6.ModflowGwtmst(\n",
    "    gwt,\n",
    "    porosity=prsity,\n",
    "    first_order_decay=False,\n",
    "    decay=None,\n",
    "    decay_sorbed=None,\n",
    "    sorption=None,\n",
    "    bulk_density=None,\n",
    "    distcoef=None,\n",
    "    filename=f\"{gwtname}.mst\",\n",
    "    );\n",
    "## delete \";\" in above line at end to show full output"
   ]
  },
  {
   "cell_type": "markdown",
   "metadata": {},
   "source": [
    "Code block sets adsorbtion/desorbtion and 1st order decay terms if any."
   ]
  },
  {
   "cell_type": "code",
   "execution_count": 23,
   "metadata": {},
   "outputs": [],
   "source": [
    "# Instantiating MODFLOW 6 transport source-sink mixing package\n",
    "#sourcerecarray = [\n",
    " #   (\"WEL-1\", \"AUX\", \"CONCENTRATION\"),\n",
    "  #  (\"CHD-1\", \"AUX\", \"CONCENTRATION\"),\n",
    "   # ]\n",
    "sourcerecarray = [\n",
    "    (\"CHD-1\", \"AUX\", \"CONCENTRATION\"),\n",
    "    ]\n",
    "flopy.mf6.ModflowGwtssm(\n",
    "    gwt,\n",
    "    sources=sourcerecarray,\n",
    "    print_flows=True,\n",
    "    filename=f\"{gwtname}.ssm\",\n",
    "    );\n",
    "## delete \";\" in above line at end to show full output"
   ]
  },
  {
   "cell_type": "markdown",
   "metadata": {},
   "source": [
    "Code above manages source/sink mixing terms."
   ]
  },
  {
   "cell_type": "code",
   "execution_count": 24,
   "metadata": {},
   "outputs": [],
   "source": [
    "# Instantiating MODFLOW 6 transport output control package\n",
    "flopy.mf6.ModflowGwtoc(\n",
    "    gwt,\n",
    "    budget_filerecord=f\"{gwtname}.cbc\",\n",
    "    concentration_filerecord=f\"{gwtname}.ucn\",\n",
    "    concentrationprintrecord=[(\"COLUMNS\", 10, \"WIDTH\", 15, \"DIGITS\", 6, \"GENERAL\")],\n",
    "    saverecord=[(\"CONCENTRATION\", \"LAST\"), (\"BUDGET\", \"LAST\")],\n",
    "    printrecord=[(\"CONCENTRATION\", \"LAST\"), (\"BUDGET\", \"LAST\")],\n",
    "    filename=f\"{gwtname}.oc\",\n",
    "    );\n",
    "## delete \";\" in above line at end to show full output"
   ]
  },
  {
   "cell_type": "markdown",
   "metadata": {},