# File generated by Flopy version 3.9.2 on 11/06/2025 at 22:54:40.
BEGIN options
  SAVE_FLOWS
END options

BEGIN packages
  DIS6  gwf-mt3d_ex09.dis  dis
  IC6  gwf-mt3d_ex09.ic  ic
  NPF6  gwf-mt3d_ex09.npf  npf
  STO6  gwf-mt3d_ex09.sto  sto
  CHD6  gwf-mt3d_ex09.chd  chd-1
  WEL6  gwf-mt3d_ex09.wel  wel-1
  OC6  gwf-mt3d_ex09.oc  oc
END packages

