# File generated by Flopy version 3.9.2 on 09/17/2025 at 21:41:19.
BEGIN options
  BUDGET  FILEOUT  gwf-mt3d_ex09.bud
  HEAD  FILEOUT  gwf-mt3d_ex09.hds
  HEAD  PRINT_FORMAT  COLUMNS  10  WIDTH  15  DIGITS  6  GENERAL
END options

BEGIN period  1
  SAVE  HEAD  LAST
  SAVE  BUDGET  LAST
  PRINT  HEAD  LAST
  PRINT  BUDGET  LAST
END period  1

