# File generated by Flopy version 3.9.2 on 11/06/2025 at 22:54:40.
BEGIN options
  SAVE_FLOWS
END options

BEGIN packages
  DIS6  gwt-mt3d_ex09.dis  dis
  IC6  gwt-mt3d_ex09.ic  ic
  ADV6  gwt-mt3d_ex09.adv  adv
  DSP6  gwt-mt3d_ex09.dsp  dsp
  MST6  gwt-mt3d_ex09.mst  mst
  SSM6  gwt-mt3d_ex09.ssm  ssm
  OC6  gwt-mt3d_ex09.oc  oc
END packages

