# File generated by Flopy version 3.9.2 on 11/04/2025 at 22:28:30.
BEGIN options
END options

BEGIN griddata
  alh
    CONSTANT      20.00000000
  ath1
    CONSTANT       4.00000000
END griddata

