# File generated by Flopy version 3.9.2 on 09/17/2025 at 21:41:19.
BEGIN options
  SCHEME  tvd
END options

