# File generated by Flopy version 3.9.2 on 02/19/2025 at 15:26:11.
BEGIN options
  SCHEME  tvd
END options

