# File generated by Flopy version 3.9.2 on 09/17/2025 at 21:27:07.
BEGIN options
END options

BEGIN griddata
  porosity
    CONSTANT       0.30000000
END griddata

