# File generated by Flopy version 3.9.2 on 11/06/2025 at 22:54:40.
BEGIN options
  SCHEME  tvd
END options

