# File generated by Flopy version 3.9.2 on 11/06/2025 at 22:54:40.
BEGIN options
END options

BEGIN griddata
  strt
    CONSTANT       0.00000000
END griddata

