# File generated by Flopy version 3.9.2 on 11/06/2025 at 22:54:40.
BEGIN options
  PRINT_FLOWS
END options

BEGIN sources
  WEL-1  AUX  CONCENTRATION
  CHD-1  AUX  CONCENTRATION
END sources

