# File generated by Flopy version 3.9.2 on 09/17/2025 at 21:41:19.
BEGIN options
END options

BEGIN griddata
  alh
    CONSTANT      20.00000000
  ath1
    CONSTANT       4.00000000
END griddata

