# File generated by Flopy version 3.9.2 on 11/04/2025 at 22:18:48.
BEGIN options
  BUDGET  FILEOUT  gwt-mt3d_ex09.cbc
  CONCENTRATION  FILEOUT  gwt-mt3d_ex09.ucn
  CONCENTRATION  PRINT_FORMAT  COLUMNS  10  WIDTH  15  DIGITS  6  GENERAL
END options

BEGIN period  1
  SAVE  CONCENTRATION  LAST
  SAVE  BUDGET  LAST
  PRINT  CONCENTRATION  LAST
  PRINT  BUDGET  LAST
END period  1

