# File generated by Flopy version 3.9.2 on 11/04/2025 at 22:28:30.
BEGIN options
  SCHEME  tvd
END options

