# File generated by Flopy version 3.9.2 on 09/17/2025 at 21:41:19.
BEGIN options
END options

BEGIN timing
  TDIS6  sim-mt3d_ex09.tdis
END timing

BEGIN models
  gwf6  gwf-mt3d_ex09.nam  gwf-mt3d_ex09
  gwt6  gwt-mt3d_ex09.nam  gwt-mt3d_ex09
END models

BEGIN exchanges
  GWF6-GWT6  mt3d_ex09.gwfgwt  gwf-mt3d_ex09  gwt-mt3d_ex09
END exchanges

BEGIN solutiongroup  1
  ims6  gwf-mt3d_ex09.ims  gwf-mt3d_ex09
  ims6  gwt-mt3d_ex09.ims  gwt-mt3d_ex09
END solutiongroup  1

