# File generated by Flopy version 3.9.2 on 11/11/2025 at 22:24:35.
BEGIN options
END options

BEGIN griddata
  strt  LAYERED
    INTERNAL  FACTOR  1.0
        3100.00000000    3100.00000000    3100.00000000    3100.00000000    3100.00000000    3100.00000000    3100.00000000    3100.00000000    3100.00000000    3100.00000000    3100.00000000    3100.00000000    3100.00000000    3100.00000000    3100.00000000    3100.00000000    3100.00000000    3100.00000000    3100.00000000    3100.00000000    3100.00000000    3100.00000000    3100.00000000    3100.00000000    3100.00000000    3100.00000000
        3100.00000000    3070.00000000    3070.00000000    3070.00000000    3070.00000000    3070.00000000    3070.00000000    3070.00000000    3070.00000000    3070.00000000    3070.00000000    3070.00000000    3070.00000000    3070.00000000    3070.00000000    3070.00000000    3070.00000000    3070.00000000    3070.00000000    3070.00000000    3070.00000000    3070.00000000    3070.00000000    3070.00000000    3070.00000000    3070.00000000
        3100.00000000    3070.00000000    3070.00000000    3070.00000000    3070.00000000    3070.00000000    3070.00000000    3070.00000000    3070.00000000    3070.00000000    3070.00000000    3070.00000000    3070.00000000    3070.00000000    3070.00000000    3070.00000000    3070.00000000    3070.00000000    3070.00000000    3070.00000000    3070.00000000    3070.00000000    3070.00000000    3070.00000000    3070.00000000    3070.00000000
        3100.00000000    3070.00000000    3070.00000000    3070.00000000    3070.00000000    3070.00000000    3070.00000000    3070.00000000    3070.00000000    3070.00000000    3070.00000000    3070.00000000    3070.00000000    3070.00000000    3070.00000000    3070.00000000    3070.00000000    3070.00000000    3070.00000000    3070.00000000    3070.00000000    3070.00000000    3070.00000000    3070.00000000    3070.00000000    3070.00000000
        3070.00000000    3070.00000000    3070.00000000    3070.00000000    3070.00000000    3070.00000000    3070.00000000    3070.00000000    3070.00000000    3070.00000000    3070.00000000    3070.00000000    3070.00000000    3070.00000000    3070.00000000    3070.00000000    3070.00000000    3070.00000000    3070.00000000    3070.00000000    3070.00000000    3070.00000000    3070.00000000    3070.00000000    3070.00000000    3070.00000000
        3070.00000000    3070.00000000    3070.00000000    3070.00000000    3070.00000000    3070.00000000    3070.00000000    3070.00000000    3070.00000000    3070.00000000    3070.00000000    3070.00000000    3070.00000000    3070.00000000    3070.00000000    3070.00000000    3070.00000000    3070.00000000    3070.00000000    3070.00000000    3070.00000000    3070.00000000    3070.00000000    3070.00000000    3070.00000000    3070.00000000
        3070.00000000    3070.00000000    3070.00000000    3070.00000000    3070.00000000    3070.00000000    3070.00000000    3070.00000000    3070.00000000    3070.00000000    3070.00000000    3070.00000000    3070.00000000    3070.00000000    3070.00000000    3070.00000000    3070.00000000    3070.00000000    3070.00000000    3070.00000000    3070.00000000    3070.00000000    3070.00000000    3070.00000000    3070.00000000    3070.00000000
        3070.00000000    3070.00000000    3070.00000000    3070.00000000    3070.00000000    3070.00000000    3070.00000000    3070.00000000    3070.00000000    3070.00000000    3070.00000000    3070.00000000    3070.00000000    3070.00000000    3070.00000000    3070.00000000    3070.00000000    3070.00000000    3070.00000000    3070.00000000    3070.00000000    3070.00000000    3070.00000000    3070.00000000    3070.00000000    3070.00000000
        3070.00000000    3070.00000000    3070.00000000    3070.00000000    3070.00000000    3070.00000000    3070.00000000    3070.00000000    3070.00000000    3070.00000000    3070.00000000    3070.00000000    3070.00000000    3070.00000000    3070.00000000    3070.00000000    3070.00000000    3070.00000000    3070.00000000    3070.00000000    3070.00000000    3070.00000000    3070.00000000    3070.00000000    3070.00000000    3070.00000000
        3070.00000000    3070.00000000    3070.00000000    3070.00000000    3070.00000000    3070.00000000    3070.00000000    3070.00000000    3070.00000000    3070.00000000    3070.00000000    3070.00000000    3070.00000000    3070.00000000    3070.00000000    3070.00000000    3070.00000000    3070.00000000    3070.00000000    3070.00000000    3070.00000000    3070.00000000    3070.00000000    3070.00000000    3070.00000000    3070.00000000
        3070.00000000    3070.00000000    3070.00000000    3070.00000000    3070.00000000    3070.00000000    3070.00000000    3070.00000000    3070.00000000    3070.00000000    3070.00000000    3070.00000000    3070.00000000    3070.00000000    3070.00000000    3070.00000000    3070.00000000    3070.00000000    3070.00000000    3070.00000000    3070.00000000    3070.00000000    3070.00000000    3070.00000000    3070.00000000    3070.00000000
        3070.00000000    3070.00000000    3070.00000000    3070.00000000    3070.00000000    3070.00000000    3070.00000000    3070.00000000    3070.00000000    3070.00000000    3070.00000000    3070.00000000    3070.00000000    3070.00000000    3070.00000000    3070.00000000    3070.00000000    3070.00000000    3070.00000000    3070.00000000    3070.00000000    3070.00000000    3070.00000000    3070.00000000    3070.00000000    3070.00000000
        3070.00000000    3070.00000000    3070.00000000    3070.00000000    3070.00000000    3070.00000000    3070.00000000    3070.00000000    3070.00000000    3070.00000000    3070.00000000    3070.00000000    3070.00000000    3070.00000000    3070.00000000    3070.00000000    3070.00000000    3070.00000000    3070.00000000    3070.00000000    3070.00000000    3070.00000000    3070.00000000    3070.00000000    3070.00000000    3070.00000000
        3070.00000000    3070.00000000    3070.00000000    3070.00000000    3070.00000000    3070.00000000    3070.00000000    3070.00000000    3070.00000000    3070.00000000    3070.00000000    3070.00000000    3070.00000000    3070.00000000    3070.00000000    3070.00000000    3070.00000000    3070.00000000    3070.00000000    3070.00000000    3070.00000000    3070.00000000    3070.00000000    3070.00000000    3070.00000000    3070.00000000
        3070.00000000    3070.00000000    3070.00000000    3070.00000000    3070.00000000    3070.00000000    3070.00000000    3070.00000000    3070.00000000    3070.00000000    3070.00000000    3070.00000000    3070.00000000    3070.00000000    3070.00000000    3070.00000000    3070.00000000    3070.00000000    3070.00000000    3070.00000000    3070.00000000    3070.00000000    3070.00000000    3070.00000000    3070.00000000    3070.00000000
        3070.00000000    3070.00000000    3070.00000000    3070.00000000    3070.00000000    3070.00000000    3070.00000000    3070.00000000    3070.00000000    3070.00000000    3070.00000000    3070.00000000    3070.00000000    3070.00000000    3070.00000000    3070.00000000    3070.00000000    3070.00000000    3070.00000000    3070.00000000    3070.00000000    3070.00000000    3070.00000000    3070.00000000    3070.00000000    3070.00000000
        3070.00000000    3070.00000000    3070.00000000    3070.00000000    3070.00000000    3070.00000000    3070.00000000    3070.00000000    3070.00000000    3070.00000000    3070.00000000    3070.00000000    3070.00000000    3070.00000000    3070.00000000    3070.00000000    3070.00000000    3070.00000000    3070.00000000    3070.00000000    3070.00000000    3070.00000000    3070.00000000    3070.00000000    3070.00000000    3070.00000000
        3070.00000000    3070.00000000    3070.00000000    3070.00000000    3070.00000000    3070.00000000    3070.00000000    3070.00000000    3070.00000000    3070.00000000    3070.00000000    3070.00000000    3070.00000000    3070.00000000    3070.00000000    3070.00000000    3070.00000000    3070.00000000    3070.00000000    3070.00000000    3070.00000000    3070.00000000    3070.00000000    3070.00000000    3070.00000000    3070.00000000
        3070.00000000    3070.00000000    3070.00000000    3070.00000000    3070.00000000    3070.00000000    3070.00000000    3070.00000000    3070.00000000    3070.00000000    3070.00000000    3070.00000000    3070.00000000    3070.00000000    3070.00000000    3070.00000000    3070.00000000    3070.00000000    3070.00000000    3070.00000000    3070.00000000    3070.00000000    3070.00000000    3070.00000000    3070.00000000    3070.00000000
        3070.00000000    3070.00000000    3070.00000000    3070.00000000    3070.00000000    3070.00000000    3070.00000000    3070.00000000    3070.00000000    3070.00000000    3070.00000000    3070.00000000    3070.00000000    3070.00000000    3070.00000000    3070.00000000    3070.00000000    3070.00000000    3070.00000000    3070.00000000    3070.00000000    3070.00000000    3070.00000000    3070.00000000    3070.00000000    3070.00000000
        3070.00000000    3070.00000000    3070.00000000    3070.00000000    3070.00000000    3070.00000000    3070.00000000    3070.00000000    3070.00000000    3070.00000000    3070.00000000    3070.00000000    3070.00000000    3070.00000000    3070.00000000    3070.00000000    3070.00000000    3070.00000000    3070.00000000    3070.00000000    3070.00000000    3070.00000000    3070.00000000    3070.00000000    3070.00000000    3070.00000000
        3070.00000000    3070.00000000    3070.00000000    3070.00000000    3070.00000000    3070.00000000    3070.00000000    3070.00000000    3070.00000000    3070.00000000    3070.00000000    3070.00000000    3070.00000000    3070.00000000    3070.00000000    3070.00000000    3070.00000000    3070.00000000    3070.00000000    3070.00000000    3070.00000000    3070.00000000    3070.00000000    3070.00000000    3070.00000000    3070.00000000
        3070.00000000    3070.00000000    3070.00000000    3070.00000000    3070.00000000    3070.00000000    3070.00000000    3070.00000000    3070.00000000    3070.00000000    3070.00000000    3070.00000000    3070.00000000    3070.00000000    3070.00000000    3070.00000000    3070.00000000    3070.00000000    3070.00000000    3070.00000000    3070.00000000    3070.00000000    3070.00000000    3070.00000000    3070.00000000    3070.00000000
        3070.00000000    3070.00000000    3070.00000000    3070.00000000    3070.00000000    3070.00000000    3070.00000000    3070.00000000    3070.00000000    3070.00000000    3070.00000000    3070.00000000    3070.00000000    3070.00000000    3070.00000000    3070.00000000    3070.00000000    3070.00000000    3070.00000000    3070.00000000    3070.00000000    3070.00000000    3070.00000000    3070.00000000    3070.00000000    3070.00000000
        3070.00000000    3070.00000000    3070.00000000    3070.00000000    3070.00000000    3070.00000000    3070.00000000    3070.00000000    3070.00000000    3070.00000000    3070.00000000    3070.00000000    3070.00000000    3070.00000000    3070.00000000    3070.00000000    3070.00000000    3070.00000000    3070.00000000    3070.00000000    3070.00000000    3070.00000000    3070.00000000    3070.00000000    3070.00000000    3070.00000000
        3070.00000000    3070.00000000    3070.00000000    3070.00000000    3070.00000000    3070.00000000    3070.00000000    3070.00000000    3070.00000000    3070.00000000    3070.00000000    3070.00000000    3070.00000000    3070.00000000    3070.00000000    3070.00000000    3070.00000000    3070.00000000    3070.00000000    3070.00000000    3070.00000000    3070.00000000    3070.00000000    3070.00000000    3070.00000000    3070.00000000
        3070.00000000    3070.00000000    3070.00000000    3070.00000000    3070.00000000    3070.00000000    3070.00000000    3070.00000000    3070.00000000    3070.00000000    3070.00000000    3070.00000000    3070.00000000    3070.00000000    3070.00000000    3070.00000000    3070.00000000    3070.00000000    3070.00000000    3070.00000000    3070.00000000    3070.00000000    3070.00000000    3070.00000000    3070.00000000    3070.00000000
        3070.00000000    3070.00000000    3070.00000000    3070.00000000    3070.00000000    3070.00000000    3070.00000000    3070.00000000    3070.00000000    3070.00000000    3070.00000000    3070.00000000    3070.00000000    3070.00000000    3070.00000000    3070.00000000    3070.00000000    3070.00000000    3070.00000000    3070.00000000    3070.00000000    3070.00000000    3070.00000000    3070.00000000    3070.00000000    3070.00000000
        3070.00000000    3070.00000000    3070.00000000    3070.00000000    3070.00000000    3070.00000000    3070.00000000    3070.00000000    3070.00000000    3070.00000000    3070.00000000    3070.00000000    3070.00000000    3070.00000000    3070.00000000    3070.00000000    3070.00000000    3070.00000000    3070.00000000    3070.00000000    3070.00000000    3070.00000000    3070.00000000    3070.00000000    3070.00000000    3070.00000000
        3070.00000000    3070.00000000    3070.00000000    3070.00000000    3070.00000000    3070.00000000    3070.00000000    3070.00000000    3070.00000000    3070.00000000    3070.00000000    3070.00000000    3070.00000000    3070.00000000    3070.00000000    3070.00000000    3070.00000000    3070.00000000    3070.00000000    3070.00000000    3070.00000000    3070.00000000    3070.00000000    3070.00000000    3070.00000000    3070.00000000
        3070.00000000    3070.00000000    3070.00000000    3070.00000000    3070.00000000    3070.00000000    3070.00000000    3070.00000000    3070.00000000    3070.00000000    3070.00000000    3070.00000000    3070.00000000    3070.00000000    3070.00000000    3070.00000000    3070.00000000    3070.00000000    3070.00000000    3070.00000000    3070.00000000    3070.00000000    3070.00000000    3070.00000000    3070.00000000    3070.00000000
        3070.00000000    3070.00000000    3070.00000000    3070.00000000    3070.00000000    3070.00000000    3070.00000000    3070.00000000    3070.00000000    3070.00000000    3070.00000000    3070.00000000    3070.00000000    3070.00000000    3070.00000000    3070.00000000    3070.00000000    3070.00000000    3070.00000000    3070.00000000    3070.00000000    3070.00000000    3070.00000000    3070.00000000    3070.00000000    3070.00000000
        3070.00000000    3070.00000000    3070.00000000    3070.00000000    3070.00000000    3070.00000000    3070.00000000    3070.00000000    3070.00000000    3070.00000000    3070.00000000    3070.00000000    3070.00000000    3070.00000000    3070.00000000    3070.00000000    3070.00000000    3070.00000000    3070.00000000    3070.00000000    3070.00000000    3070.00000000    3070.00000000    3070.00000000    3070.00000000    3070.00000000
        3070.00000000    3070.00000000    3070.00000000    3070.00000000    3070.00000000    3070.00000000    3070.00000000    3070.00000000    3070.00000000    3070.00000000    3070.00000000    3070.00000000    3070.00000000    3070.00000000    3070.00000000    3070.00000000    3070.00000000    3070.00000000    3070.00000000    3070.00000000    3070.00000000    3070.00000000    3070.00000000    3070.00000000    3070.00000000    3070.00000000
        3070.00000000    3070.00000000    3070.00000000    3070.00000000    3070.00000000    3070.00000000    3070.00000000    3070.00000000    3070.00000000    3070.00000000    3070.00000000    3070.00000000    3070.00000000    3070.00000000    3070.00000000    3070.00000000    3070.00000000    3070.00000000    3070.00000000    3070.00000000    3070.00000000    3070.00000000    3070.00000000    3070.00000000    3070.00000000    3070.00000000
        3070.00000000    3070.00000000    3070.00000000    3070.00000000    3070.00000000    3070.00000000    3070.00000000    3070.00000000    3070.00000000    3070.00000000    3070.00000000    3070.00000000    3070.00000000    3070.00000000    3070.00000000    3070.00000000    3070.00000000    3070.00000000    3070.00000000    3070.00000000    3070.00000000    3070.00000000    3070.00000000    3070.00000000    3070.00000000    3070.00000000
        3070.00000000    3070.00000000    3070.00000000    3070.00000000    3070.00000000    3070.00000000    3070.00000000    3070.00000000    3070.00000000    3070.00000000    3070.00000000    3070.00000000    3070.00000000    3070.00000000    3070.00000000    3070.00000000    3070.00000000    3070.00000000    3070.00000000    3070.00000000    3070.00000000    3070.00000000    3070.00000000    3070.00000000    3070.00000000    3070.00000000
        3070.00000000    3070.00000000    3070.00000000    3070.00000000    3070.00000000    3070.00000000    3070.00000000    3070.00000000    3070.00000000    3070.00000000    3070.00000000    3070.00000000    3070.00000000    3070.00000000    3070.00000000    3070.00000000    3070.00000000    3070.00000000    3070.00000000    3070.00000000    3070.00000000    3070.00000000    3070.00000000    3070.00000000    3070.00000000    3070.00000000
        3070.00000000    3070.00000000    3070.00000000    3070.00000000    3070.00000000    3070.00000000    3070.00000000    3070.00000000    3070.00000000    3070.00000000    3070.00000000    3070.00000000    3070.00000000    3070.00000000    3070.00000000    3070.00000000    3070.00000000    3070.00000000    3070.00000000    3070.00000000    3070.00000000    3070.00000000    3070.00000000    3070.00000000    3070.00000000    3070.00000000
        3070.00000000    3070.00000000    3070.00000000    3070.00000000    3070.00000000    3070.00000000    3070.00000000    3070.00000000    3070.00000000    3070.00000000    3070.00000000    3070.00000000    3070.00000000    3070.00000000    3070.00000000    3070.00000000    3070.00000000    3070.00000000    3070.00000000    3070.00000000    3070.00000000    3070.00000000    3070.00000000    3070.00000000    3070.00000000    3070.00000000
        3070.00000000    3070.00000000    3070.00000000    3070.00000000    3070.00000000    3070.00000000    3070.00000000    3070.00000000    3070.00000000    3070.00000000    3070.00000000    3070.00000000    3070.00000000    3070.00000000    3070.00000000    3070.00000000    3070.00000000    3070.00000000    3070.00000000    3070.00000000    3070.00000000    3070.00000000    3070.00000000    3070.00000000    3070.00000000    3070.00000000
        3070.00000000    3070.00000000    3070.00000000    3070.00000000    3070.00000000    3070.00000000    3070.00000000    3070.00000000    3070.00000000    3070.00000000    3070.00000000    3070.00000000    3070.00000000    3070.00000000    3070.00000000    3070.00000000    3070.00000000    3070.00000000    3070.00000000    3070.00000000    3070.00000000    3070.00000000    3070.00000000    3070.00000000    3070.00000000    3070.00000000
        3070.00000000    3070.00000000    3070.00000000    3070.00000000    3070.00000000    3070.00000000    3070.00000000    3070.00000000    3070.00000000    3070.00000000    3070.00000000    3070.00000000    3070.00000000    3070.00000000    3070.00000000    3070.00000000    3070.00000000    3070.00000000    3070.00000000    3070.00000000    3070.00000000    3070.00000000    3070.00000000    3070.00000000    3070.00000000    3070.00000000
        3070.00000000    3070.00000000    3070.00000000    3070.00000000    3070.00000000    3070.00000000    3070.00000000    3070.00000000    3070.00000000    3070.00000000    3070.00000000    3070.00000000    3070.00000000    3070.00000000    3070.00000000    3070.00000000    3070.00000000    3070.00000000    3070.00000000    3070.00000000    3070.00000000    3070.00000000    3070.00000000    3070.00000000    3070.00000000    3070.00000000
        3070.00000000    3070.00000000    3070.00000000    3070.00000000    3070.00000000    3070.00000000    3070.00000000    3070.00000000    3070.00000000    3070.00000000    3070.00000000    3070.00000000    3070.00000000    3070.00000000    3070.00000000    3070.00000000    3070.00000000    3070.00000000    3070.00000000    3070.00000000    3070.00000000    3070.00000000    3070.00000000    3070.00000000    3070.00000000    3070.00000000
        3070.00000000    3070.00000000    3070.00000000    3070.00000000    3070.00000000    3070.00000000    3070.00000000    3070.00000000    3070.00000000    3070.00000000    3070.00000000    3070.00000000    3070.00000000    3070.00000000    3070.00000000    3070.00000000    3070.00000000    3070.00000000    3070.00000000    3070.00000000    3070.00000000    3070.00000000    3070.00000000    3070.00000000    3070.00000000    3040.00000000
        3070.00000000    3070.00000000    3070.00000000    3070.00000000    3070.00000000    3070.00000000    3070.00000000    3070.00000000    3070.00000000    3070.00000000    3070.00000000    3070.00000000    3070.00000000    3070.00000000    3070.00000000    3070.00000000    3070.00000000    3070.00000000    3070.00000000    3070.00000000    3070.00000000    3070.00000000    3070.00000000    3070.00000000    3070.00000000    3040.00000000
        3070.00000000    3070.00000000    3070.00000000    3070.00000000    3070.00000000    3070.00000000    3070.00000000    3070.00000000    3070.00000000    3070.00000000    3070.00000000    3070.00000000    3070.00000000    3070.00000000    3070.00000000    3070.00000000    3070.00000000    3070.00000000    3070.00000000    3070.00000000    3070.00000000    3070.00000000    3070.00000000    3070.00000000    3070.00000000    3040.00000000
        3070.00000000    3070.00000000    3070.00000000    3070.00000000    3070.00000000    3070.00000000    3070.00000000    3070.00000000    3070.00000000    3070.00000000    3070.00000000    3070.00000000    3070.00000000    3070.00000000    3070.00000000    3070.00000000    3070.00000000    3070.00000000    3070.00000000    3070.00000000    3070.00000000    3070.00000000    3070.00000000    3070.00000000    3070.00000000    3040.00000000
        3040.00000000    3040.00000000    3040.00000000    3040.00000000    3040.00000000    3040.00000000    3040.00000000    3040.00000000    3040.00000000    3040.00000000    3040.00000000    3040.00000000    3040.00000000    3040.00000000    3040.00000000    3040.00000000    3040.00000000    3040.00000000    3040.00000000    3040.00000000    3040.00000000    3040.00000000    3040.00000000    3040.00000000    3040.00000000    3040.00000000
    INTERNAL  FACTOR  1.0
        3100.00000000    3100.00000000    3100.00000000    3100.00000000    3100.00000000    3100.00000000    3100.00000000    3100.00000000    3100.00000000    3100.00000000    3100.00000000    3100.00000000    3100.00000000    3100.00000000    3100.00000000    3100.00000000    3100.00000000    3100.00000000    3100.00000000    3100.00000000    3100.00000000    3100.00000000    3100.00000000    3100.00000000    3100.00000000    3100.00000000
        3100.00000000    3070.00000000    3070.00000000    3070.00000000    3070.00000000    3070.00000000    3070.00000000    3070.00000000    3070.00000000    3070.00000000    3070.00000000    3070.00000000    3070.00000000    3070.00000000    3070.00000000    3070.00000000    3070.00000000    3070.00000000    3070.00000000    3070.00000000    3070.00000000    3070.00000000    3070.00000000    3070.00000000    3070.00000000    3070.00000000
        3100.00000000    3070.00000000    3070.00000000    3070.00000000    3070.00000000    3070.00000000    3070.00000000    3070.00000000    3070.00000000    3070.00000000    3070.00000000    3070.00000000    3070.00000000    3070.00000000    3070.00000000    3070.00000000    3070.00000000    3070.00000000    3070.00000000    3070.00000000    3070.00000000    3070.00000000    3070.00000000    3070.00000000    3070.00000000    3070.00000000
        3100.00000000    3070.00000000    3070.00000000    3070.00000000    3070.00000000    3070.00000000    3070.00000000    3070.00000000    3070.00000000    3070.00000000    3070.00000000    3070.00000000    3070.00000000    3070.00000000    3070.00000000    3070.00000000    3070.00000000    3070.00000000    3070.00000000    3070.00000000    3070.00000000    3070.00000000    3070.00000000    3070.00000000    3070.00000000    3070.00000000
        3070.00000000    3070.00000000    3070.00000000    3070.00000000    3070.00000000    3070.00000000    3070.00000000    3070.00000000    3070.00000000    3070.00000000    3070.00000000    3070.00000000    3070.00000000    3070.00000000    3070.00000000    3070.00000000    3070.00000000    3070.00000000    3070.00000000    3070.00000000    3070.00000000    3070.00000000    3070.00000000    3070.00000000    3070.00000000    3070.00000000
        3070.00000000    3070.00000000    3070.00000000    3070.00000000    3070.00000000    3070.00000000    3070.00000000    3070.00000000    3070.00000000    3070.00000000    3070.00000000    3070.00000000    3070.00000000    3070.00000000    3070.00000000    3070.00000000    3070.00000000    3070.00000000    3070.00000000    3070.00000000    3070.00000000    3070.00000000    3070.00000000    3070.00000000    3070.00000000    3070.00000000
        3070.00000000    3070.00000000    3070.00000000    3070.00000000    3070.00000000    3070.00000000    3070.00000000    3070.00000000    3070.00000000    3070.00000000    3070.00000000    3070.00000000    3070.00000000    3070.00000000    3070.00000000    3070.00000000    3070.00000000    3070.00000000    3070.00000000    3070.00000000    3070.00000000    3070.00000000    3070.00000000    3070.00000000    3070.00000000    3070.00000000
        3070.00000000    3070.00000000    3070.00000000    3070.00000000    3070.00000000    3070.00000000    3070.00000000    3070.00000000    3070.00000000    3070.00000000    3070.00000000    3070.00000000    3070.00000000    3070.00000000    3070.00000000    3070.00000000    3070.00000000    3070.00000000    3070.00000000    3070.00000000    3070.00000000    3070.00000000    3070.00000000    3070.00000000    3070.00000000    3070.00000000
        3070.00000000    3070.00000000    3070.00000000    3070.00000000    3070.00000000    3070.00000000    3070.00000000    3070.00000000    3070.00000000    3070.00000000    3070.00000000    3070.00000000    3070.00000000    3070.00000000    3070.00000000    3070.00000000    3070.00000000    3070.00000000    3070.00000000    3070.00000000    3070.00000000    3070.00000000    3070.00000000    3070.00000000    3070.00000000    3070.00000000
        3070.00000000    3070.00000000    3070.00000000    3070.00000000    3070.00000000    3070.00000000    3070.00000000    3070.00000000    3070.00000000    3070.00000000    3070.00000000    3070.00000000    3070.00000000    3070.00000000    3070.00000000    3070.00000000    3070.00000000    3070.00000000    3070.00000000    3070.00000000    3070.00000000    3070.00000000    3070.00000000    3070.00000000    3070.00000000    3070.00000000
        3070.00000000    3070.00000000    3070.00000000    3070.00000000    3070.00000000    3070.00000000    3070.00000000    3070.00000000    3070.00000000    3070.00000000    3070.00000000    3070.00000000    3070.00000000    3070.00000000    3070.00000000    3070.00000000    3070.00000000    3070.00000000    3070.00000000    3070.00000000    3070.00000000    3070.00000000    3070.00000000    3070.00000000    3070.00000000    3070.00000000
        3070.00000000    3070.00000000    3070.00000000    3070.00000000    3070.00000000    3070.00000000    3070.00000000    3070.00000000    3070.00000000    3070.00000000    3070.00000000    3070.00000000    3070.00000000    3070.00000000    3070.00000000    3070.00000000    3070.00000000    3070.00000000    3070.00000000    3070.00000000    3070.00000000    3070.00000000    3070.00000000    3070.00000000    3070.00000000    3070.00000000
        3070.00000000    3070.00000000    3070.00000000    3070.00000000    3070.00000000    3070.00000000    3070.00000000    3070.00000000    3070.00000000    3070.00000000    3070.00000000    3070.00000000    3070.00000000    3070.00000000    3070.00000000    3070.00000000    3070.00000000    3070.00000000    3070.00000000    3070.00000000    3070.00000000    3070.00000000    3070.00000000    3070.00000000    3070.00000000    3070.00000000
        3070.00000000    3070.00000000    3070.00000000    3070.00000000    3070.00000000    3070.00000000    3070.00000000    3070.00000000    3070.00000000    3070.00000000    3070.00000000    3070.00000000    3070.00000000    3070.00000000    3070.00000000    3070.00000000    3070.00000000    3070.00000000    3070.00000000    3070.00000000    3070.00000000    3070.00000000    3070.00000000    3070.00000000    3070.00000000    3070.00000000
        3070.00000000    3070.00000000    3070.00000000    3070.00000000    3070.00000000    3070.00000000    3070.00000000    3070.00000000    3070.00000000    3070.00000000    3070.00000000    3070.00000000    3070.00000000    3070.00000000    3070.00000000    3070.00000000    3070.00000000    3070.00000000    3070.00000000    3070.00000000    3070.00000000    3070.00000000    3070.00000000    3070.00000000    3070.00000000    3070.00000000
        3070.00000000    3070.00000000    3070.00000000    3070.00000000    3070.00000000    3070.00000000    3070.00000000    3070.00000000    3070.00000000    3070.00000000    3070.00000000    3070.00000000    3070.00000000    3070.00000000    3070.00000000    3070.00000000    3070.00000000    3070.00000000    3070.00000000    3070.00000000    3070.00000000    3070.00000000    3070.00000000    3070.00000000    3070.00000000    3070.00000000