# File generated by Flopy version 3.9.2 on 11/11/2025 at 21:47:33.
BEGIN options
  auxiliary  CONCENTRATION
END options

BEGIN dimensions
  MAXBOUND  135
END dimensions

BEGIN period  1
  1 1 1 3.10000000E+03 0.00000000E+00
  1 1 2 3.10000000E+03 0.00000000E+00
  1 1 3 3.10000000E+03 0.00000000E+00
  1 1 4 3.10000000E+03 0.00000000E+00
  1 1 5 3.10000000E+03 0.00000000E+00
  1 1 6 3.10000000E+03 0.00000000E+00
  1 1 7 3.10000000E+03 0.00000000E+00
  1 1 8 3.10000000E+03 0.00000000E+00
  1 1 9 3.10000000E+03 0.00000000E+00
  1 1 10 3.10000000E+03 0.00000000E+00
  1 1 11 3.10000000E+03 0.00000000E+00
  1 1 12 3.10000000E+03 0.00000000E+00
  1 1 13 3.10000000E+03 0.00000000E+00
  1 1 14 3.10000000E+03 0.00000000E+00
  1 1 15 3.10000000E+03 0.00000000E+00
  1 1 16 3.10000000E+03 0.00000000E+00
  1 1 17 3.10000000E+03 0.00000000E+00
  1 1 18 3.10000000E+03 0.00000000E+00
  1 1 19 3.10000000E+03 0.00000000E+00
  1 1 20 3.10000000E+03 0.00000000E+00
  1 1 21 3.10000000E+03 0.00000000E+00
  1 2 1 3.10000000E+03 0.00000000E+00
  1 3 1 3.10000000E+03 0.00000000E+00
  1 4 1 3.10000000E+03 0.00000000E+00
  1 46 26 3.04000000E+03 0.00000000E+00
  1 47 26 3.04000000E+03 0.00000000E+00
  1 48 26 3.04000000E+03 0.00000000E+00
  1 49 26 3.04000000E+03 0.00000000E+00
  1 50 10 3.04000000E+03 0.00000000E+00
  1 50 11 3.04000000E+03 0.00000000E+00
  1 50 12 3.04000000E+03 0.00000000E+00
  1 50 13 3.04000000E+03 0.00000000E+00
  1 50 14 3.04000000E+03 0.00000000E+00
  1 50 15 3.04000000E+03 0.00000000E+00
  1 50 16 3.04000000E+03 0.00000000E+00
  1 50 17 3.04000000E+03 0.00000000E+00
  1 50 18 3.04000000E+03 0.00000000E+00
  1 50 19 3.04000000E+03 0.00000000E+00
  1 50 20 3.04000000E+03 0.00000000E+00
  1 50 21 3.04000000E+03 0.00000000E+00
  1 50 22 3.04000000E+03 0.00000000E+00
  1 50 23 3.04000000E+03 0.00000000E+00
  1 50 24 3.04000000E+03 0.00000000E+00
  1 50 25 3.04000000E+03 0.00000000E+00
  1 50 26 3.04000000E+03 0.00000000E+00
  2 1 1 3.10000000E+03 0.00000000E+00
  2 1 2 3.10000000E+03 0.00000000E+00
  2 1 3 3.10000000E+03 0.00000000E+00
  2 1 4 3.10000000E+03 0.00000000E+00
  2 1 5 3.10000000E+03 0.00000000E+00
  2 1 6 3.10000000E+03 0.00000000E+00
  2 1 7 3.10000000E+03 0.00000000E+00
  2 1 8 3.10000000E+03 0.00000000E+00
  2 1 9 3.10000000E+03 0.00000000E+00
  2 1 10 3.10000000E+03 0.00000000E+00
  2 1 11 3.10000000E+03 0.00000000E+00
  2 1 12 3.10000000E+03 0.00000000E+00
  2 1 13 3.10000000E+03 0.00000000E+00
  2 1 14 3.10000000E+03 0.00000000E+00
  2 1 15 3.10000000E+03 0.00000000E+00
  2 1 16 3.10000000E+03 0.00000000E+00
  2 1 17 3.10000000E+03 0.00000000E+00
  2 1 18 3.10000000E+03 0.00000000E+00
  2 1 19 3.10000000E+03 0.00000000E+00
  2 1 20 3.10000000E+03 0.00000000E+00
  2 1 21 3.10000000E+03 0.00000000E+00
  2 2 1 3.10000000E+03 0.00000000E+00
  2 3 1 3.10000000E+03 0.00000000E+00
  2 4 1 3.10000000E+03 0.00000000E+00
  2 46 26 3.04000000E+03 0.00000000E+00
  2 47 26 3.04000000E+03 0.00000000E+00
  2 48 26 3.04000000E+03 0.00000000E+00
  2 49 26 3.04000000E+03 0.00000000E+00
  2 50 10 3.04000000E+03 0.00000000E+00
  2 50 11 3.04000000E+03 0.00000000E+00
  2 50 12 3.04000000E+03 0.00000000E+00
  2 50 13 3.04000000E+03 0.00000000E+00
  2 50 14 3.04000000E+03 0.00000000E+00
  2 50 15 3.04000000E+03 0.00000000E+00
  2 50 16 3.04000000E+03 0.00000000E+00
  2 50 17 3.04000000E+03 0.00000000E+00
  2 50 18 3.04000000E+03 0.00000000E+00
  2 50 19 3.04000000E+03 0.00000000E+00
  2 50 20 3.04000000E+03 0.00000000E+00
  2 50 21 3.04000000E+03 0.00000000E+00
  2 50 22 3.04000000E+03 0.00000000E+00
  2 50 23 3.04000000E+03 0.00000000E+00
  2 50 24 3.04000000E+03 0.00000000E+00
  2 50 25 3.04000000E+03 0.00000000E+00
  2 50 26 3.04000000E+03 0.00000000E+00
  3 1 1 3.10000000E+03 0.00000000E+00
  3 1 2 3.10000000E+03 0.00000000E+00
  3 1 3 3.10000000E+03 0.00000000E+00
  3 1 4 3.10000000E+03 0.00000000E+00
  3 1 5 3.10000000E+03 0.00000000E+00
  3 1 6 3.10000000E+03 0.00000000E+00
  3 1 7 3.10000000E+03 0.00000000E+00
  3 1 8 3.10000000E+03 0.00000000E+00
  3 1 9 3.10000000E+03 0.00000000E+00
  3 1 10 3.10000000E+03 0.00000000E+00
  3 1 11 3.10000000E+03 0.00000000E+00
  3 1 12 3.10000000E+03 0.00000000E+00
  3 1 13 3.10000000E+03 0.00000000E+00
  3 1 14 3.10000000E+03 0.00000000E+00
  3 1 15 3.10000000E+03 0.00000000E+00
  3 1 16 3.10000000E+03 0.00000000E+00
  3 1 17 3.10000000E+03 0.00000000E+00
  3 1 18 3.10000000E+03 0.00000000E+00
  3 1 19 3.10000000E+03 0.00000000E+00
  3 1 20 3.10000000E+03 0.00000000E+00
  3 1 21 3.10000000E+03 0.00000000E+00
  3 2 1 3.10000000E+03 0.00000000E+00
  3 3 1 3.10000000E+03 0.00000000E+00
  3 4 1 3.10000000E+03 0.00000000E+00
  3 46 26 3.04000000E+03 0.00000000E+00
  3 47 26 3.04000000E+03 0.00000000E+00
  3 48 26 3.04000000E+03 0.00000000E+00
  3 49 26 3.04000000E+03 0.00000000E+00
  3 50 10 3.04000000E+03 0.00000000E+00
  3 50 11 3.04000000E+03 0.00000000E+00
  3 50 12 3.04000000E+03 0.00000000E+00
  3 50 13 3.04000000E+03 0.00000000E+00
  3 50 14 3.04000000E+03 0.00000000E+00
  3 50 15 3.04000000E+03 0.00000000E+00
  3 50 16 3.04000000E+03 0.00000000E+00
  3 50 17 3.04000000E+03 0.00000000E+00
  3 50 18 3.04000000E+03 0.00000000E+00
  3 50 19 3.04000000E+03 0.00000000E+00
  3 50 20 3.04000000E+03 0.00000000E+00
  3 50 21 3.04000000E+03 0.00000000E+00
  3 50 22 3.04000000E+03 0.00000000E+00
  3 50 23 3.04000000E+03 0.00000000E+00
  3 50 24 3.04000000E+03 0.00000000E+00
  3 50 25 3.04000000E+03 0.00000000E+00
  3 50 26 3.04000000E+03 0.00000000E+00
END period  1

