# File generated by Flopy version 3.9.2 on 11/11/2025 at 21:47:33.
BEGIN options
  BUDGET  FILEOUT  gwf-es7.bud
  HEAD  FILEOUT  gwf-es7.hds
  HEAD  PRINT_FORMAT  COLUMNS  10  WIDTH  15  DIGITS  6  GENERAL
END options

BEGIN period  1
  SAVE  HEAD  LAST
  SAVE  BUDGET  LAST
  PRINT  HEAD  LAST
  PRINT  BUDGET  LAST
END period  1

