# File generated by Flopy version 3.9.2 on 11/21/2025 at 00:17:38.
BEGIN options
  SAVE_FLOWS
  SAVE_SPECIFIC_DISCHARGE
END options

BEGIN griddata
  icelltype
    CONSTANT  0
  k  LAYERED
    INTERNAL  FACTOR  1.0
      8.82170280E-05  8.82170280E-05  8.82170280E-05  8.82170280E-05  8.82170280E-05  8.82170280E-05  8.82170280E-05  8.82170280E-05  8.82170280E-05  8.82170280E-05  8.82170280E-05  8.82170280E-05  8.82170280E-05  8.82170280E-05  8.82170280E-05  8.82170280E-05  8.82170280E-05  8.82170280E-05  8.82170280E-05  8.82170280E-05  8.82170280E-05  8.82170280E-05  8.82170280E-05  8.82170280E-05  8.82170280E-05  8.82170280E-05
      8.82170280E-05  8.82170280E-05  8.82170280E-05  8.82170280E-05  8.82170280E-05  8.82170280E-05  8.82170280E-05  8.82170280E-05  8.82170280E-05  8.82170280E-05  8.82170280E-05  8.82170280E-05  8.82170280E-05  8.82170280E-05  8.82170280E-05  8.82170280E-05  8.82170280E-05  8.82170280E-05  8.82170280E-05  8.82170280E-05  8.82170280E-05  8.82170280E-05  8.82170280E-05  8.82170280E-05  8.82170280E-05  8.82170280E-05
      8.82170280E-05  8.82170280E-05  8.82170280E-05  8.82170280E-05  8.82170280E-05  8.82170280E-05  8.82170280E-05  8.82170280E-05  8.82170280E-05  8.82170280E-05  8.82170280E-05  8.82170280E-05  8.82170280E-05  8.82170280E-05  8.82170280E-05  8.82170280E-05  8.82170280E-05  8.82170280E-05  8.82170280E-05  8.82170280E-05  8.82170280E-05  8.82170280E-05  8.82170280E-05  8.82170280E-05  8.82170280E-05  8.82170280E-05
      8.82170280E-05  8.82170280E-05  8.82170280E-05  8.82170280E-05  8.82170280E-05  8.82170280E-05  8.82170280E-05  8.82170280E-05  8.82170280E-05  8.82170280E-05  8.82170280E-05  8.82170280E-05  8.82170280E-05  8.82170280E-05  8.82170280E-05  8.82170280E-05  8.82170280E-05  8.82170280E-05  8.82170280E-05  8.82170280E-05  8.82170280E-05  8.82170280E-05  8.82170280E-05  8.82170280E-05  8.82170280E-05  8.82170280E-05
      8.82170280E-05  8.82170280E-05  8.82170280E-05  8.82170280E-05  8.82170280E-05  8.82170280E-05  8.82170280E-05  8.82170280E-05  8.82170280E-05  8.82170280E-05  8.82170280E-05  8.82170280E-05  8.82170280E-05  8.82170280E-05  8.82170280E-05  8.82170280E-05  8.82170280E-05  8.82170280E-05  8.82170280E-05  8.82170280E-05  8.82170280E-05  8.82170280E-05  8.82170280E-05  8.82170280E-05  8.82170280E-05  8.82170280E-05
      8.82170280E-05  8.82170280E-05  8.82170280E-05  8.82170280E-05  8.82170280E-05  8.82170280E-05  8.82170280E-05  8.82170280E-05  8.82170280E-05  8.82170280E-05  8.82170280E-05  8.82170280E-05  8.82170280E-05  8.82170280E-05  8.82170280E-05  8.82170280E-05  8.82170280E-05  8.82170280E-05  8.82170280E-05  8.82170280E-05  8.82170280E-05  8.82170280E-05  8.82170280E-05  8.82170280E-05  8.82170280E-05  8.82170280E-05
      8.82170280E-05  8.82170280E-05  8.82170280E-05  8.82170280E-05  8.82170280E-05  8.82170280E-05  8.82170280E-05  8.82170280E-05  8.82170280E-05  8.82170280E-05  8.82170280E-05  8.82170280E-05  8.82170280E-05  8.82170280E-05  8.82170280E-05  8.82170280E-05  8.82170280E-05  8.82170280E-05  8.82170280E-05  8.82170280E-05  8.82170280E-05  8.82170280E-05  8.82170280E-05  8.82170280E-05  8.82170280E-05  8.82170280E-05
      8.82170280E-05  8.82170280E-05  8.82170280E-05  8.82170280E-05  8.82170280E-05  8.82170280E-05  8.82170280E-05  8.82170280E-05  8.82170280E-05  8.82170280E-05  8.82170280E-05  8.82170280E-05  8.82170280E-05  8.82170280E-05  8.82170280E-05  8.82170280E-05  8.82170280E-05  8.82170280E-05  8.82170280E-05  8.82170280E-05  8.82170280E-05  8.82170280E-05  8.82170280E-05  8.82170280E-05  8.82170280E-05  8.82170280E-05
      8.82170280E-05  8.82170280E-05  8.82170280E-05  8.82170280E-05  8.82170280E-05  8.82170280E-05  8.82170280E-05  8.82170280E-05  8.82170280E-05  8.82170280E-05  8.82170280E-05  8.82170280E-05  8.82170280E-05  8.82170280E-05  8.82170280E-05  8.82170280E-05  8.82170280E-05  8.82170280E-05  8.82170280E-05  8.82170280E-05  8.82170280E-05  8.82170280E-05  8.82170280E-05  8.82170280E-05  8.82170280E-05  8.82170280E-05
      8.82170280E-05  8.82170280E-05  8.82170280E-05  8.82170280E-05  8.82170280E-05  8.82170280E-05  8.82170280E-05  8.82170280E-05  8.82170280E-05  8.82170280E-05  8.82170280E-05  8.82170280E-05  8.82170280E-05  8.82170280E-05  8.82170280E-05  8.82170280E-05  8.82170280E-05  8.82170280E-05  8.82170280E-05  8.82170280E-05  8.82170280E-05  8.82170280E-05  8.82170280E-05  8.82170280E-05  8.82170280E-05  8.82170280E-05
      8.82170280E-05  8.82170280E-05  8.82170280E-05  8.82170280E-05  8.82170280E-05  8.82170280E-05  8.82170280E-05  8.82170280E-05  8.82170280E-05  8.82170280E-05  8.82170280E-05  8.82170280E-05  8.82170280E-05  8.82170280E-05  8.82170280E-05  8.82170280E-05  8.82170280E-05  8.82170280E-05  8.82170280E-05  8.82170280E-05  8.82170280E-05  8.82170280E-05  8.82170280E-05  8.82170280E-05  8.82170280E-05  8.82170280E-05
      8.82170280E-05  8.82170280E-05  8.82170280E-05  8.82170280E-05  8.82170280E-05  8.82170280E-05  8.82170280E-05  8.82170280E-05  8.82170280E-05  8.82170280E-05  8.82170280E-05  8.82170280E-05  8.82170280E-05  8.82170280E-05  8.82170280E-05  8.82170280E-05  8.82170280E-05  8.82170280E-05  8.82170280E-05  8.82170280E-05  8.82170280E-05  8.82170280E-05  8.82170280E-05  8.82170280E-05  8.82170280E-05  8.82170280E-05
      8.82170280E-05  8.82170280E-05  8.82170280E-05  8.82170280E-05  8.82170280E-05  8.82170280E-05  8.82170280E-05  8.82170280E-05  8.82170280E-05  8.82170280E-05  8.82170280E-05  8.82170280E-05  8.82170280E-05  8.82170280E-05  8.82170280E-05  8.82170280E-05  8.82170280E-05  8.82170280E-05  8.82170280E-05  8.82170280E-05  8.82170280E-05  8.82170280E-05  8.82170280E-05  8.82170280E-05  8.82170280E-05  8.82170280E-05
      8.82170280E-05  8.82170280E-05  8.82170280E-05  8.82170280E-05  8.82170280E-05  8.82170280E-05  8.82170280E-05  8.82170280E-05  8.82170280E-05  8.82170280E-05  8.82170280E-05  8.82170280E-05  8.82170280E-05  8.82170280E-05  8.82170280E-05  8.82170280E-05  8.82170280E-05  8.82170280E-05  8.82170280E-05  8.82170280E-05  8.82170280E-05  8.82170280E-05  8.82170280E-05  8.82170280E-05  8.82170280E-05  8.82170280E-05
      8.82170280E-05  8.82170280E-05  8.82170280E-05  8.82170280E-05  8.82170280E-05  8.82170280E-05  8.82170280E-05  8.82170280E-05  8.82170280E-05  8.82170280E-05  8.82170280E-05  8.82170280E-05  8.82170280E-05  8.82170280E-05  8.82170280E-05  8.82170280E-05  8.82170280E-05  8.82170280E-05  8.82170280E-05  8.82170280E-05  8.82170280E-05  8.82170280E-05  8.82170280E-05  8.82170280E-05  8.82170280E-05  8.82170280E-05
      8.82170280E-05  8.82170280E-05  8.82170280E-05  8.82170280E-05  8.82170280E-05  8.82170280E-05  8.82170280E-05  8.82170280E-05  8.82170280E-05  8.82170280E-05  8.82170280E-05  8.82170280E-05  8.82170280E-05  8.82170280E-05  8.82170280E-05  8.82170280E-05  8.82170280E-05  8.82170280E-05  8.82170280E-05  8.82170280E-05  8.82170280E-05  8.82170280E-05  8.82170280E-05  8.82170280E-05  8.82170280E-05  8.82170280E-05
      8.82170280E-05  8.82170280E-05  8.82170280E-05  8.82170280E-05  8.82170280E-05  8.82170280E-05  8.82170280E-05  8.82170280E-05  8.82170280E-05  8.82170280E-05  8.82170280E-05  8.82170280E-05  8.82170280E-05  8.82170280E-05  8.82170280E-05  8.82170280E-05  8.82170280E-05  8.82170280E-05  8.82170280E-05  8.82170280E-05  8.82170280E-05  8.82170280E-05  8.82170280E-05  8.82170280E-05  8.82170280E-05  8.82170280E-05
      8.82170280E-05  8.82170280E-05  8.82170280E-05  8.82170280E-05  8.82170280E-05  8.82170280E-05  8.82170280E-05  8.82170280E-05  8.82170280E-05  8.82170280E-05  8.82170280E-05  8.82170280E-05  8.82170280E-05  8.82170280E-05  8.82170280E-05  8.82170280E-05  8.82170280E-05  8.82170280E-05  8.82170280E-05  8.82170280E-05  8.82170280E-05  8.82170280E-05  8.82170280E-05  8.82170280E-05  8.82170280E-05  8.82170280E-05
      8.82170280E-05  8.82170280E-05  8.82170280E-05  8.82170280E-05  8.82170280E-05  8.82170280E-05  8.82170280E-05  8.82170280E-05  8.82170280E-05  8.82170280E-05  8.82170280E-05  8.82170280E-05  8.82170280E-05  8.82170280E-05  8.82170280E-05  8.82170280E-05  8.82170280E-05  8.82170280E-05  8.82170280E-05  8.82170280E-05  8.82170280E-05  8.82170280E-05  8.82170280E-05  8.82170280E-05  8.82170280E-05  8.82170280E-05
      8.82170280E-05  8.82170280E-05  8.82170280E-05  8.82170280E-05  8.82170280E-05  8.82170280E-05  8.82170280E-05  8.82170280E-05  8.82170280E-05  8.82170280E-05  8.82170280E-05  8.82170280E-05  8.82170280E-05  8.82170280E-05  8.82170280E-05  8.82170280E-05  8.82170280E-05  8.82170280E-05  8.82170280E-05  8.82170280E-05  8.82170280E-05  8.82170280E-05  8.82170280E-05  8.82170280E-05  8.82170280E-05  8.82170280E-05
      8.82170280E-05  8.82170280E-05  8.82170280E-05  8.82170280E-05  8.82170280E-05  8.82170280E-05  8.82170280E-05  8.82170280E-05  8.82170280E-05  8.82170280E-05  8.82170280E-05  8.82170280E-05  8.82170280E-05  8.82170280E-05  8.82170280E-05  8.82170280E-05  8.82170280E-05  8.82170280E-05  8.82170280E-05  8.82170280E-05  8.82170280E-05  8.82170280E-05  8.82170280E-05  8.82170280E-05  8.82170280E-05  8.82170280E-05
      8.82170280E-05  8.82170280E-05  8.82170280E-05  8.82170280E-05  8.82170280E-05  8.82170280E-05  8.82170280E-05  8.82170280E-05  8.82170280E-05  8.82170280E-05  8.82170280E-05  8.82170280E-05  8.82170280E-05  8.82170280E-05  8.82170280E-05  8.82170280E-05  8.82170280E-05  8.82170280E-05  8.82170280E-05  8.82170280E-05  8.82170280E-05  8.82170280E-05  8.82170280E-05  8.82170280E-05  8.82170280E-05  8.82170280E-05
      8.82170280E-05  8.82170280E-05  8.82170280E-05  8.82170280E-05  8.82170280E-05  8.82170280E-05  8.82170280E-05  8.82170280E-05  8.82170280E-05  8.82170280E-05  8.82170280E-05  8.82170280E-05  8.82170280E-05  8.82170280E-05  8.82170280E-05  8.82170280E-05  8.82170280E-05  8.82170280E-05  8.82170280E-05  8.82170280E-05  8.82170280E-05  8.82170280E-05  8.82170280E-05  8.82170280E-05  8.82170280E-05  8.82170280E-05
      8.82170280E-05  8.82170280E-05  8.82170280E-05  8.82170280E-05  8.82170280E-05  8.82170280E-05  8.82170280E-05  8.82170280E-05  8.82170280E-05  8.82170280E-05  8.82170280E-05  8.82170280E-05  8.82170280E-05  8.82170280E-05  8.82170280E-05  8.82170280E-05  8.82170280E-05  8.82170280E-05  8.82170280E-05  8.82170280E-05  8.82170280E-05  8.82170280E-05  8.82170280E-05  8.82170280E-05  8.82170280E-05  8.82170280E-05
      8.82170280E-05  8.82170280E-05  8.82170280E-05  8.82170280E-05  8.82170280E-05  8.82170280E-05  8.82170280E-05  8.82170280E-05  8.82170280E-05  8.82170280E-05  8.82170280E-05  8.82170280E-05  8.82170280E-05  8.82170280E-05  8.82170280E-05  8.82170280E-05  8.82170280E-05  8.82170280E-05  8.82170280E-05  8.82170280E-05  8.82170280E-05  8.82170280E-05  8.82170280E-05  8.82170280E-05  8.82170280E-05  8.82170280E-05
      8.82170280E-05  8.82170280E-05  8.82170280E-05  8.82170280E-05  8.82170280E-05  8.82170280E-05  8.82170280E-05  8.82170280E-05  8.82170280E-05  8.82170280E-05  8.82170280E-05  8.82170280E-05  8.82170280E-05  8.82170280E-05  8.82170280E-05  8.82170280E-05  8.82170280E-05  8.82170280E-05  8.82170280E-05  8.82170280E-05  8.82170280E-05  8.82170280E-05  8.82170280E-05  8.82170280E-05  8.82170280E-05  8.82170280E-05
      8.82170280E-05  8.82170280E-05  8.82170280E-05  8.82170280E-05  8.82170280E-05  8.82170280E-05  8.82170280E-05  8.82170280E-05  8.82170280E-05  8.82170280E-05  8.82170280E-05  8.82170280E-05  8.82170280E-05  8.82170280E-05  8.82170280E-05  8.82170280E-05  8.82170280E-05  8.82170280E-05  8.82170280E-05  8.82170280E-05  8.82170280E-05  8.82170280E-05  8.82170280E-05  8.82170280E-05  8.82170280E-05  8.82170280E-05
      8.82170280E-05  8.82170280E-05  8.82170280E-05  8.82170280E-05  8.82170280E-05  8.82170280E-05  8.82170280E-05  8.82170280E-05  8.82170280E-05  8.82170280E-05  8.82170280E-05  8.82170280E-05  8.82170280E-05  8.82170280E-05  8.82170280E-05  8.82170280E-05  8.82170280E-05  8.82170280E-05  8.82170280E-05  8.82170280E-05  8.82170280E-05  8.82170280E-05  8.82170280E-05  8.82170280E-05  8.82170280E-05  8.82170280E-05
      8.82170280E-05  8.82170280E-05  8.82170280E-05  8.82170280E-05  8.82170280E-05  8.82170280E-05  8.82170280E-05  8.82170280E-05  8.82170280E-05  8.82170280E-05  8.82170280E-05  8.82170280E-05  8.82170280E-05  8.82170280E-05  8.82170280E-05  8.82170280E-05  8.82170280E-05  8.82170280E-05  8.82170280E-05  8.82170280E-05  8.82170280E-05  8.82170280E-05  8.82170280E-05  8.82170280E-05  8.82170280E-05  8.82170280E-05
      8.82170280E-05  8.82170280E-05  8.82170280E-05  8.82170280E-05  8.82170280E-05  8.82170280E-05  8.82170280E-05  8.82170280E-05  8.82170280E-05  8.82170280E-05  8.82170280E-05  8.82170280E-05  8.82170280E-05  8.82170280E-05  8.82170280E-05  8.82170280E-05  8.82170280E-05  8.82170280E-05  8.82170280E-05  8.82170280E-05  8.82170280E-05  8.82170280E-05  8.82170280E-05  8.82170280E-05  8.82170280E-05  8.82170280E-05
      8.82170280E-05  8.82170280E-05  8.82170280E-05  8.82170280E-05  8.82170280E-05  8.82170280E-05  8.82170280E-05  8.82170280E-05  8.82170280E-05  8.82170280E-05  8.82170280E-05  8.82170280E-05  8.82170280E-05  8.82170280E-05  8.82170280E-05  8.82170280E-05  8.82170280E-05  8.82170280E-05  8.82170280E-05  8.82170280E-05  8.82170280E-05  8.82170280E-05  8.82170280E-05  8.82170280E-05  8.82170280E-05  8.82170280E-05
      8.82170280E-05  8.82170280E-05  8.82170280E-05  8.82170280E-05  8.82170280E-05  8.82170280E-05  8.82170280E-05  8.82170280E-05  8.82170280E-05  8.82170280E-05  8.82170280E-05  8.82170280E-05  8.82170280E-05  8.82170280E-05  8.82170280E-05  8.82170280E-05  8.82170280E-05  8.82170280E-05  8.82170280E-05  8.82170280E-05  8.82170280E-05  8.82170280E-05  8.82170280E-05  8.82170280E-05  8.82170280E-05  8.82170280E-05
      8.82170280E-05  8.82170280E-05  8.82170280E-05  8.82170280E-05  8.82170280E-05  8.82170280E-05  8.82170280E-05  8.82170280E-05  8.82170280E-05  8.82170280E-05  8.82170280E-05  8.82170280E-05  8.82170280E-05  8.82170280E-05  8.82170280E-05  8.82170280E-05  8.82170280E-05  8.82170280E-05  8.82170280E-05  8.82170280E-05  8.82170280E-05  8.82170280E-05  8.82170280E-05  8.82170280E-05  8.82170280E-05  8.82170280E-05
      8.82170280E-05  8.82170280E-05  8.82170280E-05  8.82170280E-05  8.82170280E-05  8.82170280E-05  8.82170280E-05  8.82170280E-05  8.82170280E-05  8.82170280E-05  8.82170280E-05  8.82170280E-05  8.82170280E-05  8.82170280E-05  8.82170280E-05  8.82170280E-05  8.82170280E-05  8.82170280E-05  8.82170280E-05  8.82170280E-05  8.82170280E-05  8.82170280E-05  8.82170280E-05  8.82170280E-05  8.82170280E-05  8.82170280E-05
      8.82170280E-05  8.82170280E-05  8.82170280E-05  8.82170280E-05  8.82170280E-05  8.82170280E-05  8.82170280E-05  8.82170280E-05  8.82170280E-05  8.82170280E-05  8.82170280E-05  8.82170280E-05  8.82170280E-05  8.82170280E-05  8.82170280E-05  8.82170280E-05  8.82170280E-05  8.82170280E-05  8.82170280E-05  8.82170280E-05  8.82170280E-05  8.82170280E-05  8.82170280E-05  8.82170280E-05  8.82170280E-05  8.82170280E-05
      8.82170280E-05  8.82170280E-05  8.82170280E-05  8.82170280E-05  8.82170280E-05  8.82170280E-05  8.82170280E-05  8.82170280E-05  8.82170280E-05  8.82170280E-05  8.82170280E-05  8.82170280E-05  8.82170280E-05  8.82170280E-05  8.82170280E-05  8.82170280E-05  8.82170280E-05  8.82170280E-05  8.82170280E-05  8.82170280E-05  8.82170280E-05  8.82170280E-05  8.82170280E-05  8.82170280E-05  8.82170280E-05  8.82170280E-05
      8.82170280E-05  8.82170280E-05  8.82170280E-05  8.82170280E-05  8.82170280E-05  8.82170280E-05  8.82170280E-05  8.82170280E-05  8.82170280E-05  8.82170280E-05  8.82170280E-05  8.82170280E-05  8.82170280E-05  8.82170280E-05  8.82170280E-05  8.82170280E-05  8.82170280E-05  8.82170280E-05  8.82170280E-05  8.82170280E-05  8.82170280E-05  8.82170280E-05  8.82170280E-05  8.82170280E-05  8.82170280E-05  8.82170280E-05
      8.82170280E-05  8.82170280E-05  8.82170280E-05  8.82170280E-05  8.82170280E-05  8.82170280E-05  8.82170280E-05  8.82170280E-05  8.82170280E-05  8.82170280E-05  8.82170280E-05  8.82170280E-05  8.82170280E-05  8.82170280E-05  8.82170280E-05  8.82170280E-05  8.82170280E-05  8.82170280E-05  8.82170280E-05  8.82170280E-05  8.82170280E-05  8.82170280E-05  8.82170280E-05  8.82170280E-05  8.82170280E-05  8.82170280E-05
      8.82170280E-05  8.82170280E-05  8.82170280E-05  8.82170280E-05  8.82170280E-05  8.82170280E-05  8.82170280E-05  8.82170280E-05  8.82170280E-05  8.82170280E-05  8.82170280E-05  8.82170280E-05  8.82170280E-05  8.82170280E-05  8.82170280E-05  8.82170280E-05  8.82170280E-05  8.82170280E-05  8.82170280E-05  8.82170280E-05  8.82170280E-05  8.82170280E-05  8.82170280E-05  8.82170280E-05  8.82170280E-05  8.82170280E-05
      8.82170280E-05  8.82170280E-05  8.82170280E-05  8.82170280E-05  8.82170280E-05  8.82170280E-05  8.82170280E-05  8.82170280E-05  8.82170280E-05  8.82170280E-05  8.82170280E-05  8.82170280E-05  8.82170280E-05  8.82170280E-05  8.82170280E-05  8.82170280E-05  8.82170280E-05  8.82170280E-05  8.82170280E-05  8.82170280E-05  8.82170280E-05  8.82170280E-05  8.82170280E-05  8.82170280E-05  8.82170280E-05  8.82170280E-05
      8.82170280E-05  8.82170280E-05  8.82170280E-05  8.82170280E-05  8.82170280E-05  8.82170280E-05  8.82170280E-05  8.82170280E-05  8.82170280E-05  8.82170280E-05  8.82170280E-05  8.82170280E-05  8.82170280E-05  8.82170280E-05  8.82170280E-05  8.82170280E-05  8.82170280E-05  8.82170280E-05  8.82170280E-05  8.82170280E-05  8.82170280E-05  8.82170280E-05  8.82170280E-05  8.82170280E-05  8.82170280E-05  8.82170280E-05
      8.82170280E-05  8.82170280E-05  8.82170280E-05  8.82170280E-05  8.82170280E-05  8.82170280E-05  8.82170280E-05  8.82170280E-05  8.82170280E-05  8.82170280E-05  8.82170280E-05  8.82170280E-05  8.82170280E-05  8.82170280E-05  8.82170280E-05  8.82170280E-05  8.82170280E-05  8.82170280E-05  8.82170280E-05  8.82170280E-05  8.82170280E-05  8.82170280E-05  8.82170280E-05  8.82170280E-05  8.82170280E-05  8.82170280E-05
      8.82170280E-05  8.82170280E-05  8.82170280E-05  8.82170280E-05  8.82170280E-05  8.82170280E-05  8.82170280E-05  8.82170280E-05  8.82170280E-05  8.82170280E-05  8.82170280E-05  8.82170280E-05  8.82170280E-05  8.82170280E-05  8.82170280E-05  8.82170280E-05  8.82170280E-05  8.82170280E-05  8.82170280E-05  8.82170280E-05  8.82170280E-05  8.82170280E-05  8.82170280E-05  8.82170280E-05  8.82170280E-05  8.82170280E-05
      8.82170280E-05  8.82170280E-05  8.82170280E-05  8.82170280E-05  8.82170280E-05  8.82170280E-05  8.82170280E-05  8.82170280E-05  8.82170280E-05  8.82170280E-05  8.82170280E-05  8.82170280E-05  8.82170280E-05  8.82170280E-05  8.82170280E-05  8.82170280E-05  8.82170280E-05  8.82170280E-05  8.82170280E-05  8.82170280E-05  8.82170280E-05  8.82170280E-05  8.82170280E-05  8.82170280E-05  8.82170280E-05  8.82170280E-05
      8.82170280E-05  8.82170280E-05  8.82170280E-05  8.82170280E-05  8.82170280E-05  8.82170280E-05  8.82170280E-05  8.82170280E-05  8.82170280E-05  8.82170280E-05  8.82170280E-05  8.82170280E-05  8.82170280E-05  8.82170280E-05  8.82170280E-05  8.82170280E-05  8.82170280E-05  8.82170280E-05  8.82170280E-05  8.82170280E-05  8.82170280E-05  8.82170280E-05  8.82170280E-05  8.82170280E-05  8.82170280E-05  8.82170280E-05
      8.82170280E-05  8.82170280E-05  8.82170280E-05  8.82170280E-05  8.82170280E-05  8.82170280E-05  8.82170280E-05  8.82170280E-05  8.82170280E-05  8.82170280E-05  8.82170280E-05  8.82170280E-05  8.82170280E-05  8.82170280E-05  8.82170280E-05  8.82170280E-05  8.82170280E-05  8.82170280E-05  8.82170280E-05  8.82170280E-05  8.82170280E-05  8.82170280E-05  8.82170280E-05  8.82170280E-05  8.82170280E-05  8.82170280E-05
      8.82170280E-05  8.82170280E-05  8.82170280E-05  8.82170280E-05  8.82170280E-05  8.82170280E-05  8.82170280E-05  8.82170280E-05  8.82170280E-05  8.82170280E-05  8.82170280E-05  8.82170280E-05  8.82170280E-05  8.82170280E-05  8.82170280E-05  8.82170280E-05  8.82170280E-05  8.82170280E-05  8.82170280E-05  8.82170280E-05  8.82170280E-05  8.82170280E-05  8.82170280E-05  8.82170280E-05  8.82170280E-05  8.82170280E-05
      8.82170280E-05  8.82170280E-05  8.82170280E-05  8.82170280E-05  8.82170280E-05  8.82170280E-05  8.82170280E-05  8.82170280E-05  8.82170280E-05  8.82170280E-05  8.82170280E-05  8.82170280E-05  8.82170280E-05  8.82170280E-05  8.82170280E-05  8.82170280E-05  8.82170280E-05  8.82170280E-05  8.82170280E-05  8.82170280E-05  8.82170280E-05  8.82170280E-05  8.82170280E-05  8.82170280E-05  8.82170280E-05  8.82170280E-05
      8.82170280E-05  8.82170280E-05  8.82170280E-05  8.82170280E-05  8.82170280E-05  8.82170280E-05  8.82170280E-05  8.82170280E-05  8.82170280E-05  8.82170280E-05  8.82170280E-05  8.82170280E-05  8.82170280E-05  8.82170280E-05  8.82170280E-05  8.82170280E-05  8.82170280E-05  8.82170280E-05  8.82170280E-05  8.82170280E-05  8.82170280E-05  8.82170280E-05  8.82170280E-05  8.82170280E-05  8.82170280E-05  8.82170280E-05
      8.82170280E-05  8.82170280E-05  8.82170280E-05  8.82170280E-05  8.82170280E-05  8.82170280E-05  8.82170280E-05  8.82170280E-05  8.82170280E-05  8.82170280E-05  8.82170280E-05  8.82170280E-05  8.82170280E-05  8.82170280E-05  8.82170280E-05  8.82170280E-05  8.82170280E-05  8.82170280E-05  8.82170280E-05  8.82170280E-05  8.82170280E-05  8.82170280E-05  8.82170280E-05  8.82170280E-05  8.82170280E-05  8.82170280E-05
    INTERNAL  FACTOR  1.0
      8.82170280E-07  8.82170280E-07  8.82170280E-07  8.82170280E-07  8.82170280E-07  8.82170280E-07  8.82170280E-07  8.82170280E-07  8.82170280E-07  8.82170280E-07  8.82170280E-07  8.82170280E-07  8.82170280E-07  8.82170280E-07  8.82170280E-07  8.82170280E-07  8.82170280E-07  8.82170280E-07  8.82170280E-07  8.82170280E-07  8.82170280E-07  8.82170280E-07  8.82170280E-07  8.82170280E-07  8.82170280E-07  8.82170280E-07
      8.82170280E-07  8.82170280E-07  8.82170280E-07  8.82170280E-07  8.82170280E-07  8.82170280E-07  8.82170280E-07  8.82170280E-07  8.82170280E-07  8.82170280E-07  8.82170280E-07  8.82170280E-07  8.82170280E-07  8.82170280E-07  8.82170280E-07  8.82170280E-07  8.82170280E-07  8.82170280E-07  8.82170280E-07  8.82170280E-07  8.82170280E-07  8.82170280E-07  8.82170280E-07  8.82170280E-07  8.82170280E-07  8.82170280E-07
      8.82170280E-07  8.82170280E-07  8.82170280E-07  8.82170280E-07  8.82170280E-07  8.82170280E-07  8.82170280E-07  8.82170280E-07  8.82170280E-07  8.82170280E-07  8.82170280E-07  8.82170280E-07  8.82170280E-07  8.82170280E-07  8.82170280E-07  8.82170280E-07  8.82170280E-07  8.82170280E-07  8.82170280E-07  8.82170280E-07  8.82170280E-07  8.82170280E-07  8.82170280E-07  8.82170280E-07  8.82170280E-07  8.82170280E-07
      8.82170280E-07  8.82170280E-07  8.82170280E-07  8.82170280E-07  8.82170280E-07  8.82170280E-07  8.82170280E-07  8.82170280E-07  8.82170280E-07  8.82170280E-07  8.82170280E-07  8.82170280E-07  8.82170280E-07  8.82170280E-07  8.82170280E-07  8.82170280E-07  8.82170280E-07  8.82170280E-07  8.82170280E-07  8.82170280E-07  8.82170280E-07  8.82170280E-07  8.82170280E-07  8.82170280E-07  8.82170280E-07  8.82170280E-07
      8.82170280E-07  8.82170280E-07  8.82170280E-07  8.82170280E-07  8.82170280E-07  8.82170280E-07  8.82170280E-07  8.82170280E-07  8.82170280E-07  8.82170280E-07  8.82170280E-07  8.82170280E-07  8.82170280E-07  8.82170280E-07  8.82170280E-07  8.82170280E-07  8.82170280E-07  8.82170280E-07  8.82170280E-07  8.82170280E-07  8.82170280E-07  8.82170280E-07  8.82170280E-07  8.82170280E-07  8.82170280E-07  8.82170280E-07
      8.82170280E-07  8.82170280E-07  8.82170280E-07  8.82170280E-07  8.82170280E-07  8.82170280E-07  8.82170280E-07  8.82170280E-07  8.82170280E-07  8.82170280E-07  8.82170280E-07  8.82170280E-07  8.82170280E-07  8.82170280E-07  8.82170280E-07  8.82170280E-07  8.82170280E-07  8.82170280E-07  8.82170280E-07  8.82170280E-07  8.82170280E-07  8.82170280E-07  8.82170280E-07  8.82170280E-07  8.82170280E-07  8.82170280E-07
      8.82170280E-07  8.82170280E-07  8.82170280E-07  8.82170280E-07  8.82170280E-07  8.82170280E-07  8.82170280E-07  8.82170280E-07  8.82170280E-07  8.82170280E-07  8.82170280E-07  8.82170280E-07  8.82170280E-07  8.82170280E-07  8.82170280E-07  8.82170280E-07  8.82170280E-07  8.82170280E-07  8.82170280E-07  8.82170280E-07  8.82170280E-07  8.82170280E-07  8.82170280E-07  8.82170280E-07  8.82170280E-07  8.82170280E-07
      8.82170280E-07  8.82170280E-07  8.82170280E-07  8.82170280E-07  8.82170280E-07  8.82170280E-07  8.82170280E-07  8.82170280E-07  8.82170280E-07  8.82170280E-07  8.82170280E-07  8.82170280E-07  8.82170280E-07  8.82170280E-07  8.82170280E-07  8.82170280E-07  8.82170280E-07  8.82170280E-07  8.82170280E-07  8.82170280E-07  8.82170280E-07  8.82170280E-07  8.82170280E-07  8.82170280E-07  8.82170280E-07  8.82170280E-07
      8.82170280E-07  8.82170280E-07  8.82170280E-07  8.82170280E-07  8.82170280E-07  8.82170280E-07  8.82170280E-07  8.82170280E-07  8.82170280E-07  8.82170280E-07  8.82170280E-07  8.82170280E-07  8.82170280E-07  8.82170280E-07  8.82170280E-07  8.82170280E-07  8.82170280E-07  8.82170280E-07  8.82170280E-07  8.82170280E-07  8.82170280E-07  8.82170280E-07  8.82170280E-07  8.82170280E-07  8.82170280E-07  8.82170280E-07
      8.82170280E-07  8.82170280E-07  8.82170280E-07  8.82170280E-07  8.82170280E-07  8.82170280E-07  8.82170280E-07  8.82170280E-07  8.82170280E-07  8.82170280E-07  8.82170280E-07  8.82170280E-07  8.82170280E-07  8.82170280E-07  8.82170280E-07  8.82170280E-07  8.82170280E-07  8.82170280E-07  8.82170280E-07  8.82170280E-07  8.82170280E-07  8.82170280E-07  8.82170280E-07  8.82170280E-07  8.82170280E-07  8.82170280E-07
      8.82170280E-07  8.82170280E-07  8.82170280E-07  8.82170280E-07  8.82170280E-07  8.82170280E-07  8.82170280E-07  8.82170280E-07  8.82170280E-07  8.82170280E-07  8.82170280E-07  8.82170280E-07  8.82170280E-07  8.82170280E-07  8.82170280E-07  8.82170280E-07  8.82170280E-07  8.82170280E-07  8.82170280E-07  8.82170280E-07  8.82170280E-07  8.82170280E-07  8.82170280E-07  8.82170280E-07  8.82170280E-07  8.82170280E-07
      8.82170280E-07  8.82170280E-07  8.82170280E-07  8.82170280E-07  8.82170280E-07  8.82170280E-07  8.82170280E-07  8.82170280E-07  8.82170280E-07  8.82170280E-07  8.82170280E-07  8.82170280E-07  8.82170280E-07  8.82170280E-07  8.82170280E-07  8.82170280E-07  8.82170280E-07  8.82170280E-07  8.82170280E-07  8.82170280E-07  8.82170280E-07  8.82170280E-07  8.82170280E-07  8.82170280E-07  8.82170280E-07  8.82170280E-07
      8.82170280E-07  8.82170280E-07  8.82170280E-07  8.82170280E-07  8.82170280E-07  8.82170280E-07  8.82170280E-07  8.82170280E-07  8.82170280E-07  8.82170280E-07  8.82170280E-07  8.82170280E-07  8.82170280E-07  8.82170280E-07  8.82170280E-07  8.82170280E-07  8.82170280E-07  8.82170280E-07  8.82170280E-07  8.82170280E-07  8.82170280E-07  8.82170280E-07  8.82170280E-07  8.82170280E-07  8.82170280E-07  8.82170280E-07
      8.82170280E-07  8.82170280E-07  8.82170280E-07  8.82170280E-07  8.82170280E-07  8.82170280E-07  8.82170280E-07  8.82170280E-07  8.82170280E-07  8.82170280E-07  8.82170280E-07  8.82170280E-07  8.82170280E-07  8.82170280E-07  8.82170280E-07  8.82170280E-07  8.82170280E-07  8.82170280E-07  8.82170280E-07  8.82170280E-07  8.82170280E-07  8.82170280E-07  8.82170280E-07  8.82170280E-07  8.82170280E-07  8.82170280E-07
      8.82170280E-07  8.82170280E-07  8.82170280E-07  8.82170280E-07  8.82170280E-07  8.82170280E-07  8.82170280E-07  8.82170280E-07  8.82170280E-07  8.82170280E-07  8.82170280E-07  8.82170280E-07  8.82170280E-07  8.82170280E-07  8.82170280E-07  8.82170280E-07  8.82170280E-07  8.82170280E-07  8.82170280E-07  8.82170280E-07  8.82170280E-07  8.82170280E-07  8.82170280E-07  8.82170280E-07  8.82170280E-07  8.82170280E-07
      8.82170280E-07  8.82170280E-07  8.82170280E-07  8.82170280E-07  8.82170280E-07  8.82170280E-07  8.82170280E-07  8.82170280E-07  8.82170280E-07  8.82170280E-07  8.82170280E-07  8.82170280E-07  8.82170280E-07  8.82170280E-07  8.82170280E-07  8.82170280E-07  8.82170280E-07  8.82170280E-07  8.82170280E-07  8.82170280E-07  8.82170280E-07  8.82170280E-07  8.82170280E-07  8.82170280E-07  8.82170280E-07  8.82170280E-07
      8.82170280E-07  8.82170280E-07  8.82170280E-07  8.82170280E-07  8.82170280E-07  8.82170280E-07  8.82170280E-07  8.82170280E-07  8.82170280E-07  8.82170280E-07  8.82170280E-07  8.82170280E-07  8.82170280E-07  8.82170280E-07  8.82170280E-07  8.82170280E-07  8.82170280E-07  8.82170280E-07  8.82170280E-07  8.82170280E-07  8.82170280E-07  8.82170280E-07  8.82170280E-07  8.82170280E-07  8.82170280E-07  8.82170280E-07
      8.82170280E-07  8.82170280E-07  8.82170280E-07  8.82170280E-07  8.82170280E-07  8.82170280E-07  8.82170280E-07  8.82170280E-07  8.82170280E-07  8.82170280E-07  8.82170280E-07  8.82170280E-07  8.82170280E-07  8.82170280E-07  8.82170280E-07  8.82170280E-07  8.82170280E-07  8.82170280E-07  8.82170280E-07  8.82170280E-07  8.82170280E-07  8.82170280E-07  8.82170280E-07  8.82170280E-07  8.82170280E-07  8.82170280E-07
      8.82170280E-07  8.82170280E-07  8.82170280E-07  8.82170280E-07  8.82170280E-07  8.82170280E-07  8.82170280E-07  8.82170280E-07  8.82170280E-07  8.82170280E-07  8.82170280E-07  8.82170280E-07  8.82170280E-07  8.82170280E-07  8.82170280E-07  8.82170280E-07  8.82170280E-07  8.82170280E-07  8.82170280E-07  8.82170280E-07  8.82170280E-07  8.82170280E-07  8.82170280E-07  8.82170280E-07  8.82170280E-07  8.82170280E-07
      8.82170280E-07  8.82170280E-07  8.82170280E-07  8.82170280E-07  8.82170280E-07  8.82170280E-07  8.82170280E-07  8.82170280E-07  8.82170280E-07  8.82170280E-07  8.82170280E-07  8.82170280E-07  8.82170280E-07  8.82170280E-07  8.82170280E-07  8.82170280E-07  8.82170280E-07  8.82170280E-07  8.82170280E-07  8.82170280E-07  8.82170280E-07  8.82170280E-07  8.82170280E-07  8.82170280E-07  8.82170280E-07  8.82170280E-07