# File generated by Flopy version 3.9.2 on 11/13/2025 at 22:54:35.
BEGIN options
  SAVE_FLOWS
END options

BEGIN packages
  DIS6  gwf-es7.dis  dis
  IC6  gwf-es7.ic  ic
  NPF6  gwf-es7.npf  npf
  STO6  gwf-es7.sto  sto
  CHD6  gwf-es7.chd  chd-1
  OC6  gwf-es7.oc  oc
END packages

