# File generated by Flopy version 3.9.2 on 11/11/2025 at 21:47:33.
BEGIN options
  SAVE_SPECIFIC_DISCHARGE
END options

BEGIN griddata
  icelltype
    CONSTANT  0
  k  LAYERED
    INTERNAL  FACTOR  1.0
           7.62195122       7.62195122       7.62195122       7.62195122       7.62195122       7.62195122       7.62195122       7.62195122       7.62195122       7.62195122       7.62195122       7.62195122       7.62195122       7.62195122       7.62195122       7.62195122       7.62195122       7.62195122       7.62195122       7.62195122       7.62195122       7.62195122       7.62195122       7.62195122       7.62195122       7.62195122
           7.62195122       7.62195122       7.62195122       7.62195122       7.62195122       7.62195122       7.62195122       7.62195122       7.62195122       7.62195122       7.62195122       7.62195122       7.62195122       7.62195122       7.62195122       7.62195122       7.62195122       7.62195122       7.62195122       7.62195122       7.62195122       7.62195122       7.62195122       7.62195122       7.62195122       7.62195122
           7.62195122       7.62195122       7.62195122       7.62195122       7.62195122       7.62195122       7.62195122       7.62195122       7.62195122       7.62195122       7.62195122       7.62195122       7.62195122       7.62195122       7.62195122       7.62195122       7.62195122       7.62195122       7.62195122       7.62195122       7.62195122       7.62195122       7.62195122       7.62195122       7.62195122       7.62195122
           7.62195122       7.62195122       7.62195122       7.62195122       7.62195122       7.62195122       7.62195122       7.62195122       7.62195122       7.62195122       7.62195122       7.62195122       7.62195122       7.62195122       7.62195122       7.62195122       7.62195122       7.62195122       7.62195122       7.62195122       7.62195122       7.62195122       7.62195122       7.62195122       7.62195122       7.62195122
           7.62195122       7.62195122       7.62195122       7.62195122       7.62195122       7.62195122       7.62195122       7.62195122       7.62195122       7.62195122       7.62195122       7.62195122       7.62195122       7.62195122       7.62195122       7.62195122       7.62195122       7.62195122       7.62195122       7.62195122       7.62195122       7.62195122       7.62195122       7.62195122       7.62195122       7.62195122
           7.62195122       7.62195122       7.62195122       7.62195122       7.62195122       7.62195122       7.62195122       7.62195122       7.62195122       7.62195122       7.62195122       7.62195122       7.62195122       7.62195122       7.62195122       7.62195122       7.62195122       7.62195122       7.62195122       7.62195122       7.62195122       7.62195122       7.62195122       7.62195122       7.62195122       7.62195122
           7.62195122       7.62195122       7.62195122       7.62195122       7.62195122       7.62195122       7.62195122       7.62195122       7.62195122       7.62195122       7.62195122       7.62195122       7.62195122       7.62195122       7.62195122       7.62195122       7.62195122       7.62195122       7.62195122       7.62195122       7.62195122       7.62195122       7.62195122       7.62195122       7.62195122       7.62195122
           7.62195122       7.62195122       7.62195122       7.62195122       7.62195122       7.62195122       7.62195122       7.62195122       7.62195122       7.62195122       7.62195122       7.62195122       7.62195122       7.62195122       7.62195122       7.62195122       7.62195122       7.62195122       7.62195122       7.62195122       7.62195122       7.62195122       7.62195122       7.62195122       7.62195122       7.62195122
           7.62195122       7.62195122       7.62195122       7.62195122       7.62195122       7.62195122       7.62195122       7.62195122       7.62195122       7.62195122       7.62195122       7.62195122       7.62195122       7.62195122       7.62195122       7.62195122       7.62195122       7.62195122       7.62195122       7.62195122       7.62195122       7.62195122       7.62195122       7.62195122       7.62195122       7.62195122
           7.62195122       7.62195122       7.62195122       7.62195122       7.62195122       7.62195122       7.62195122       7.62195122       7.62195122       7.62195122       7.62195122       7.62195122       7.62195122       7.62195122       7.62195122       7.62195122       7.62195122       7.62195122       7.62195122       7.62195122       7.62195122       7.62195122       7.62195122       7.62195122       7.62195122       7.62195122
           7.62195122       7.62195122       7.62195122       7.62195122       7.62195122       7.62195122       7.62195122       7.62195122       7.62195122       7.62195122       7.62195122       7.62195122       7.62195122       7.62195122       7.62195122       7.62195122       7.62195122       7.62195122       7.62195122       7.62195122       7.62195122       7.62195122       7.62195122       7.62195122       7.62195122       7.62195122
           7.62195122       7.62195122       7.62195122       7.62195122       7.62195122       7.62195122       7.62195122       7.62195122       7.62195122       7.62195122       7.62195122       7.62195122       7.62195122       7.62195122       7.62195122       7.62195122       7.62195122       7.62195122       7.62195122       7.62195122       7.62195122       7.62195122       7.62195122       7.62195122       7.62195122       7.62195122
           7.62195122       7.62195122       7.62195122       7.62195122       7.62195122       7.62195122       7.62195122       7.62195122       7.62195122       7.62195122       7.62195122       7.62195122       7.62195122       7.62195122       7.62195122       7.62195122       7.62195122       7.62195122       7.62195122       7.62195122       7.62195122       7.62195122       7.62195122       7.62195122       7.62195122       7.62195122
           7.62195122       7.62195122       7.62195122       7.62195122       7.62195122       7.62195122       7.62195122       7.62195122       7.62195122       7.62195122       7.62195122       7.62195122       7.62195122       7.62195122       7.62195122       7.62195122       7.62195122       7.62195122       7.62195122       7.62195122       7.62195122       7.62195122       7.62195122       7.62195122       7.62195122       7.62195122
           7.62195122       7.62195122       7.62195122       7.62195122       7.62195122       7.62195122       7.62195122       7.62195122       7.62195122       7.62195122       7.62195122       7.62195122       7.62195122       7.62195122       7.62195122       7.62195122       7.62195122       7.62195122       7.62195122       7.62195122       7.62195122       7.62195122       7.62195122       7.62195122       7.62195122       7.62195122
           7.62195122       7.62195122       7.62195122       7.62195122       7.62195122       7.62195122       7.62195122       7.62195122       7.62195122       7.62195122       7.62195122       7.62195122       7.62195122       7.62195122       7.62195122       7.62195122       7.62195122       7.62195122       7.62195122       7.62195122       7.62195122       7.62195122       7.62195122       7.62195122       7.62195122       7.62195122
           7.62195122       7.62195122       7.62195122       7.62195122       7.62195122       7.62195122       7.62195122       7.62195122       7.62195122       7.62195122       7.62195122       7.62195122       7.62195122       7.62195122       7.62195122       7.62195122       7.62195122       7.62195122       7.62195122       7.62195122       7.62195122       7.62195122       7.62195122       7.62195122       7.62195122       7.62195122
           7.62195122       7.62195122       7.62195122       7.62195122       7.62195122       7.62195122       7.62195122       7.62195122       7.62195122       7.62195122       7.62195122       7.62195122       7.62195122       7.62195122       7.62195122       7.62195122       7.62195122       7.62195122       7.62195122       7.62195122       7.62195122       7.62195122       7.62195122       7.62195122       7.62195122       7.62195122
           7.62195122       7.62195122       7.62195122       7.62195122       7.62195122       7.62195122       7.62195122       7.62195122       7.62195122       7.62195122       7.62195122       7.62195122       7.62195122       7.62195122       7.62195122       7.62195122       7.62195122       7.62195122       7.62195122       7.62195122       7.62195122       7.62195122       7.62195122       7.62195122       7.62195122       7.62195122
           7.62195122       7.62195122       7.62195122       7.62195122       7.62195122       7.62195122       7.62195122       7.62195122       7.62195122       7.62195122       7.62195122       7.62195122       7.62195122       7.62195122       7.62195122       7.62195122       7.62195122       7.62195122       7.62195122       7.62195122       7.62195122       7.62195122       7.62195122       7.62195122       7.62195122       7.62195122
           7.62195122       7.62195122       7.62195122       7.62195122       7.62195122       7.62195122       7.62195122       7.62195122       7.62195122       7.62195122       7.62195122       7.62195122       7.62195122       7.62195122       7.62195122       7.62195122       7.62195122       7.62195122       7.62195122       7.62195122       7.62195122       7.62195122       7.62195122       7.62195122       7.62195122       7.62195122
           7.62195122       7.62195122       7.62195122       7.62195122       7.62195122       7.62195122       7.62195122       7.62195122       7.62195122       7.62195122       7.62195122       7.62195122       7.62195122       7.62195122       7.62195122       7.62195122       7.62195122       7.62195122       7.62195122       7.62195122       7.62195122       7.62195122       7.62195122       7.62195122       7.62195122       7.62195122
           7.62195122       7.62195122       7.62195122       7.62195122       7.62195122       7.62195122       7.62195122       7.62195122       7.62195122       7.62195122       7.62195122       7.62195122       7.62195122       7.62195122       7.62195122       7.62195122       7.62195122       7.62195122       7.62195122       7.62195122       7.62195122       7.62195122       7.62195122       7.62195122       7.62195122       7.62195122
           7.62195122       7.62195122       7.62195122       7.62195122       7.62195122       7.62195122       7.62195122       7.62195122       7.62195122       7.62195122       7.62195122       7.62195122       7.62195122       7.62195122       7.62195122       7.62195122       7.62195122       7.62195122       7.62195122       7.62195122       7.62195122       7.62195122       7.62195122       7.62195122       7.62195122       7.62195122
           7.62195122       7.62195122       7.62195122       7.62195122       7.62195122       7.62195122       7.62195122       7.62195122       7.62195122       7.62195122       7.62195122       7.62195122       7.62195122       7.62195122       7.62195122       7.62195122       7.62195122       7.62195122       7.62195122       7.62195122       7.62195122       7.62195122       7.62195122       7.62195122       7.62195122       7.62195122
           7.62195122       7.62195122       7.62195122       7.62195122       7.62195122       7.62195122       7.62195122       7.62195122       7.62195122       7.62195122       7.62195122       7.62195122       7.62195122       7.62195122       7.62195122       7.62195122       7.62195122       7.62195122       7.62195122       7.62195122       7.62195122       7.62195122       7.62195122       7.62195122       7.62195122       7.62195122
           7.62195122       7.62195122       7.62195122       7.62195122       7.62195122       7.62195122       7.62195122       7.62195122       7.62195122       7.62195122       7.62195122       7.62195122       7.62195122       7.62195122       7.62195122       7.62195122       7.62195122       7.62195122       7.62195122       7.62195122       7.62195122       7.62195122       7.62195122       7.62195122       7.62195122       7.62195122
           7.62195122       7.62195122       7.62195122       7.62195122       7.62195122       7.62195122       7.62195122       7.62195122       7.62195122       7.62195122       7.62195122       7.62195122       7.62195122       7.62195122       7.62195122       7.62195122       7.62195122       7.62195122       7.62195122       7.62195122       7.62195122       7.62195122       7.62195122       7.62195122       7.62195122       7.62195122
           7.62195122       7.62195122       7.62195122       7.62195122       7.62195122       7.62195122       7.62195122       7.62195122       7.62195122       7.62195122       7.62195122       7.62195122       7.62195122       7.62195122       7.62195122       7.62195122       7.62195122       7.62195122       7.62195122       7.62195122       7.62195122       7.62195122       7.62195122       7.62195122       7.62195122       7.62195122
           7.62195122       7.62195122       7.62195122       7.62195122       7.62195122       7.62195122       7.62195122       7.62195122       7.62195122       7.62195122       7.62195122       7.62195122       7.62195122       7.62195122       7.62195122       7.62195122       7.62195122       7.62195122       7.62195122       7.62195122       7.62195122       7.62195122       7.62195122       7.62195122       7.62195122       7.62195122
           7.62195122       7.62195122       7.62195122       7.62195122       7.62195122       7.62195122       7.62195122       7.62195122       7.62195122       7.62195122       7.62195122       7.62195122       7.62195122       7.62195122       7.62195122       7.62195122       7.62195122       7.62195122       7.62195122       7.62195122       7.62195122       7.62195122       7.62195122       7.62195122       7.62195122       7.62195122
           7.62195122       7.62195122       7.62195122       7.62195122       7.62195122       7.62195122       7.62195122       7.62195122       7.62195122       7.62195122       7.62195122       7.62195122       7.62195122       7.62195122       7.62195122       7.62195122       7.62195122       7.62195122       7.62195122       7.62195122       7.62195122       7.62195122       7.62195122       7.62195122       7.62195122       7.62195122
           7.62195122       7.62195122       7.62195122       7.62195122       7.62195122       7.62195122       7.62195122       7.62195122       7.62195122       7.62195122       7.62195122       7.62195122       7.62195122       7.62195122       7.62195122       7.62195122       7.62195122       7.62195122       7.62195122       7.62195122       7.62195122       7.62195122       7.62195122       7.62195122       7.62195122       7.62195122
           7.62195122       7.62195122       7.62195122       7.62195122       7.62195122       7.62195122       7.62195122       7.62195122       7.62195122       7.62195122       7.62195122       7.62195122       7.62195122       7.62195122       7.62195122       7.62195122       7.62195122       7.62195122       7.62195122       7.62195122       7.62195122       7.62195122       7.62195122       7.62195122       7.62195122       7.62195122
           7.62195122       7.62195122       7.62195122       7.62195122       7.62195122       7.62195122       7.62195122       7.62195122       7.62195122       7.62195122       7.62195122       7.62195122       7.62195122       7.62195122       7.62195122       7.62195122       7.62195122       7.62195122       7.62195122       7.62195122       7.62195122       7.62195122       7.62195122       7.62195122       7.62195122       7.62195122
           7.62195122       7.62195122       7.62195122       7.62195122       7.62195122       7.62195122       7.62195122       7.62195122       7.62195122       7.62195122       7.62195122       7.62195122       7.62195122       7.62195122       7.62195122       7.62195122       7.62195122       7.62195122       7.62195122       7.62195122       7.62195122       7.62195122       7.62195122       7.62195122       7.62195122       7.62195122
           7.62195122       7.62195122       7.62195122       7.62195122       7.62195122       7.62195122       7.62195122       7.62195122       7.62195122       7.62195122       7.62195122       7.62195122       7.62195122       7.62195122       7.62195122       7.62195122       7.62195122       7.62195122       7.62195122       7.62195122       7.62195122       7.62195122       7.62195122       7.62195122       7.62195122       7.62195122
           7.62195122       7.62195122       7.62195122       7.62195122       7.62195122       7.62195122       7.62195122       7.62195122       7.62195122       7.62195122       7.62195122       7.62195122       7.62195122       7.62195122       7.62195122       7.62195122       7.62195122       7.62195122       7.62195122       7.62195122       7.62195122       7.62195122       7.62195122       7.62195122       7.62195122       7.62195122
           7.62195122       7.62195122       7.62195122       7.62195122       7.62195122       7.62195122       7.62195122       7.62195122       7.62195122       7.62195122       7.62195122       7.62195122       7.62195122       7.62195122       7.62195122       7.62195122       7.62195122       7.62195122       7.62195122       7.62195122       7.62195122       7.62195122       7.62195122       7.62195122       7.62195122       7.62195122
           7.62195122       7.62195122       7.62195122       7.62195122       7.62195122       7.62195122       7.62195122       7.62195122       7.62195122       7.62195122       7.62195122       7.62195122       7.62195122       7.62195122       7.62195122       7.62195122       7.62195122       7.62195122       7.62195122       7.62195122       7.62195122       7.62195122       7.62195122       7.62195122       7.62195122       7.62195122
           7.62195122       7.62195122       7.62195122       7.62195122       7.62195122       7.62195122       7.62195122       7.62195122       7.62195122       7.62195122       7.62195122       7.62195122       7.62195122       7.62195122       7.62195122       7.62195122       7.62195122       7.62195122       7.62195122       7.62195122       7.62195122       7.62195122       7.62195122       7.62195122       7.62195122       7.62195122
           7.62195122       7.62195122       7.62195122       7.62195122       7.62195122       7.62195122       7.62195122       7.62195122       7.62195122       7.62195122       7.62195122       7.62195122       7.62195122       7.62195122       7.62195122       7.62195122       7.62195122       7.62195122       7.62195122       7.62195122       7.62195122       7.62195122       7.62195122       7.62195122       7.62195122       7.62195122
           7.62195122       7.62195122       7.62195122       7.62195122       7.62195122       7.62195122       7.62195122       7.62195122       7.62195122       7.62195122       7.62195122       7.62195122       7.62195122       7.62195122       7.62195122       7.62195122       7.62195122       7.62195122       7.62195122       7.62195122       7.62195122       7.62195122       7.62195122       7.62195122       7.62195122       7.62195122
           7.62195122       7.62195122       7.62195122       7.62195122       7.62195122       7.62195122       7.62195122       7.62195122       7.62195122       7.62195122       7.62195122       7.62195122       7.62195122       7.62195122       7.62195122       7.62195122       7.62195122       7.62195122       7.62195122       7.62195122       7.62195122       7.62195122       7.62195122       7.62195122       7.62195122       7.62195122
           7.62195122       7.62195122       7.62195122       7.62195122       7.62195122       7.62195122       7.62195122       7.62195122       7.62195122       7.62195122       7.62195122       7.62195122       7.62195122       7.62195122       7.62195122       7.62195122       7.62195122       7.62195122       7.62195122       7.62195122       7.62195122       7.62195122       7.62195122       7.62195122       7.62195122       7.62195122
           7.62195122       7.62195122       7.62195122       7.62195122       7.62195122       7.62195122       7.62195122       7.62195122       7.62195122       7.62195122       7.62195122       7.62195122       7.62195122       7.62195122       7.62195122       7.62195122       7.62195122       7.62195122       7.62195122       7.62195122       7.62195122       7.62195122       7.62195122       7.62195122       7.62195122       7.62195122
           7.62195122       7.62195122       7.62195122       7.62195122       7.62195122       7.62195122       7.62195122       7.62195122       7.62195122       7.62195122       7.62195122       7.62195122       7.62195122       7.62195122       7.62195122       7.62195122       7.62195122       7.62195122       7.62195122       7.62195122       7.62195122       7.62195122       7.62195122       7.62195122       7.62195122       7.62195122
           7.62195122       7.62195122       7.62195122       7.62195122       7.62195122       7.62195122       7.62195122       7.62195122       7.62195122       7.62195122       7.62195122       7.62195122       7.62195122       7.62195122       7.62195122       7.62195122       7.62195122       7.62195122       7.62195122       7.62195122       7.62195122       7.62195122       7.62195122       7.62195122       7.62195122       7.62195122
           7.62195122       7.62195122       7.62195122       7.62195122       7.62195122       7.62195122       7.62195122       7.62195122       7.62195122       7.62195122       7.62195122       7.62195122       7.62195122       7.62195122       7.62195122       7.62195122       7.62195122       7.62195122       7.62195122       7.62195122       7.62195122       7.62195122       7.62195122       7.62195122       7.62195122       7.62195122
           7.62195122       7.62195122       7.62195122       7.62195122       7.62195122       7.62195122       7.62195122       7.62195122       7.62195122       7.62195122       7.62195122       7.62195122       7.62195122       7.62195122       7.62195122       7.62195122       7.62195122       7.62195122       7.62195122       7.62195122       7.62195122       7.62195122       7.62195122       7.62195122       7.62195122       7.62195122
    INTERNAL  FACTOR  1.0
           0.07621951       0.07621951       0.07621951       0.07621951       0.07621951       0.07621951       0.07621951       0.07621951       0.07621951       0.07621951       0.07621951       0.07621951       0.07621951       0.07621951       0.07621951       0.07621951       0.07621951       0.07621951       0.07621951       0.07621951       0.07621951       0.07621951       0.07621951       0.07621951       0.07621951       0.07621951
           0.07621951       0.07621951       0.07621951       0.07621951       0.07621951       0.07621951       0.07621951       0.07621951       0.07621951       0.07621951       0.07621951       0.07621951       0.07621951       0.07621951       0.07621951       0.07621951       0.07621951       0.07621951       0.07621951       0.07621951       0.07621951       0.07621951       0.07621951       0.07621951       0.07621951       0.07621951
           0.07621951       0.07621951       0.07621951       0.07621951       0.07621951       0.07621951       0.07621951       0.07621951       0.07621951       0.07621951       0.07621951       0.07621951       0.07621951       0.07621951       0.07621951       0.07621951       0.07621951       0.07621951       0.07621951       0.07621951       0.07621951       0.07621951       0.07621951       0.07621951       0.07621951       0.07621951
           0.07621951       0.07621951       0.07621951       0.07621951       0.07621951       0.07621951       0.07621951       0.07621951       0.07621951       0.07621951       0.07621951       0.07621951       0.07621951       0.07621951       0.07621951       0.07621951       0.07621951       0.07621951       0.07621951       0.07621951       0.07621951       0.07621951       0.07621951       0.07621951       0.07621951       0.07621951
           0.07621951       0.07621951       0.07621951       0.07621951       0.07621951       0.07621951       0.07621951       0.07621951       0.07621951       0.07621951       0.07621951       0.07621951       0.07621951       0.07621951       0.07621951       0.07621951       0.07621951       0.07621951       0.07621951       0.07621951       0.07621951       0.07621951       0.07621951       0.07621951       0.07621951       0.07621951
           0.07621951       0.07621951       0.07621951       0.07621951       0.07621951       0.07621951       0.07621951       0.07621951       0.07621951       0.07621951       0.07621951       0.07621951       0.07621951       0.07621951       0.07621951       0.07621951       0.07621951       0.07621951       0.07621951       0.07621951       0.07621951       0.07621951       0.07621951       0.07621951       0.07621951       0.07621951
           0.07621951       0.07621951       0.07621951       0.07621951       0.07621951       0.07621951       0.07621951       0.07621951       0.07621951       0.07621951       0.07621951       0.07621951       0.07621951       0.07621951       0.07621951       0.07621951       0.07621951       0.07621951       0.07621951       0.07621951       0.07621951       0.07621951       0.07621951       0.07621951       0.07621951       0.07621951
           0.07621951       0.07621951       0.07621951       0.07621951       0.07621951       0.07621951       0.07621951       0.07621951       0.07621951       0.07621951       0.07621951       0.07621951       0.07621951       0.07621951       0.07621951       0.07621951       0.07621951       0.07621951       0.07621951       0.07621951       0.07621951       0.07621951       0.07621951       0.07621951       0.07621951       0.07621951
           0.07621951       0.07621951       0.07621951       0.07621951       0.07621951       0.07621951       0.07621951       0.07621951       0.07621951       0.07621951       0.07621951       0.07621951       0.07621951       0.07621951       0.07621951       0.07621951       0.07621951       0.07621951       0.07621951       0.07621951       0.07621951       0.07621951       0.07621951       0.07621951       0.07621951       0.07621951
           0.07621951       0.07621951       0.07621951       0.07621951       0.07621951       0.07621951       0.07621951       0.07621951       0.07621951       0.07621951       0.07621951       0.07621951       0.07621951       0.07621951       0.07621951       0.07621951       0.07621951       0.07621951       0.07621951       0.07621951       0.07621951       0.07621951       0.07621951       0.07621951       0.07621951       0.07621951
           0.07621951       0.07621951       0.07621951       0.07621951       0.07621951       0.07621951       0.07621951       0.07621951       0.07621951       0.07621951       0.07621951       0.07621951       0.07621951       0.07621951       0.07621951       0.07621951       0.07621951       0.07621951       0.07621951       0.07621951       0.07621951       0.07621951       0.07621951       0.07621951       0.07621951       0.07621951
           0.07621951       0.07621951       0.07621951       0.07621951       0.07621951       0.07621951       0.07621951       0.07621951       0.07621951       0.07621951       0.07621951       0.07621951       0.07621951       0.07621951       0.07621951       0.07621951       0.07621951       0.07621951       0.07621951       0.07621951       0.07621951       0.07621951       0.07621951       0.07621951       0.07621951       0.07621951
           0.07621951       0.07621951       0.07621951       0.07621951       0.07621951       0.07621951       0.07621951       0.07621951       0.07621951       0.07621951       0.07621951       0.07621951       0.07621951       0.07621951       0.07621951       0.07621951       0.07621951       0.07621951       0.07621951       0.07621951       0.07621951       0.07621951       0.07621951       0.07621951       0.07621951       0.07621951
           0.07621951       0.07621951       0.07621951       0.07621951       0.07621951       0.07621951       0.07621951       0.07621951       0.07621951       0.07621951       0.07621951       0.07621951       0.07621951       0.07621951       0.07621951       0.07621951       0.07621951       0.07621951       0.07621951       0.07621951       0.07621951       0.07621951       0.07621951       0.07621951       0.07621951       0.07621951
           0.07621951       0.07621951       0.07621951       0.07621951       0.07621951       0.07621951       0.07621951       0.07621951       0.07621951       0.07621951       0.07621951       0.07621951       0.07621951       0.07621951       0.07621951       0.07621951       0.07621951       0.07621951       0.07621951       0.07621951       0.07621951       0.07621951       0.07621951       0.07621951       0.07621951       0.07621951
           0.07621951       0.07621951       0.07621951       0.07621951       0.07621951       0.07621951       0.07621951       0.07621951       0.07621951       0.07621951       0.07621951       0.07621951       0.07621951       0.07621951       0.07621951       0.07621951       0.07621951       0.07621951       0.07621951       0.07621951       0.07621951       0.07621951       0.07621951       0.07621951       0.07621951       0.07621951