# File generated by Flopy version 3.9.2 on 11/20/2025 at 22:18:52.
BEGIN options
  PRINT_FLOWS
END options

BEGIN sources
  CHD-1  AUX  CONCENTRATION
END sources

