# File generated by Flopy version 3.9.2 on 11/21/2025 at 00:17:38.
BEGIN options
  PRINT_FLOWS
END options

BEGIN sources
  CHD-1  AUX  CONCENTRATION
END sources

