# File generated by Flopy version 3.9.2 on 11/21/2025 at 00:17:38.
BEGIN options
END options

BEGIN griddata
  porosity  LAYERED
    INTERNAL  FACTOR  1.0
           0.38000000       0.38000000       0.38000000       0.38000000       0.38000000       0.38000000       0.38000000       0.38000000       0.38000000       0.38000000       0.38000000       0.38000000       0.38000000       0.38000000       0.38000000       0.38000000       0.38000000       0.38000000       0.38000000       0.38000000       0.38000000       0.38000000       0.38000000       0.38000000       0.38000000       0.38000000
           0.38000000       0.38000000       0.38000000       0.38000000       0.38000000       0.38000000       0.38000000       0.38000000       0.38000000       0.38000000       0.38000000       0.38000000       0.38000000       0.38000000       0.38000000       0.38000000       0.38000000       0.38000000       0.38000000       0.38000000       0.38000000       0.38000000       0.38000000       0.38000000       0.38000000       0.38000000
           0.38000000       0.38000000       0.38000000       0.38000000       0.38000000       0.38000000       0.38000000       0.38000000       0.38000000       0.38000000       0.38000000       0.38000000       0.38000000       0.38000000       0.38000000       0.38000000       0.38000000       0.38000000       0.38000000       0.38000000       0.38000000       0.38000000       0.38000000       0.38000000       0.38000000       0.38000000
           0.38000000       0.38000000       0.38000000       0.38000000       0.38000000       0.38000000       0.38000000       0.38000000       0.38000000       0.38000000       0.38000000       0.38000000       0.38000000       0.38000000       0.38000000       0.38000000       0.38000000       0.38000000       0.38000000       0.38000000       0.38000000       0.38000000       0.38000000       0.38000000       0.38000000       0.38000000
           0.38000000       0.38000000       0.38000000       0.38000000       0.38000000       0.38000000       0.38000000       0.38000000       0.38000000       0.38000000       0.38000000       0.38000000       0.38000000       0.38000000       0.38000000       0.38000000       0.38000000       0.38000000       0.38000000       0.38000000       0.38000000       0.38000000       0.38000000       0.38000000       0.38000000       0.38000000
           0.38000000       0.38000000       0.38000000       0.38000000       0.38000000       0.38000000       0.38000000       0.38000000       0.38000000       0.38000000       0.38000000       0.38000000       0.38000000       0.38000000       0.38000000       0.38000000       0.38000000       0.38000000       0.38000000       0.38000000       0.38000000       0.38000000       0.38000000       0.38000000       0.38000000       0.38000000
           0.38000000       0.38000000       0.38000000       0.38000000       0.38000000       0.38000000       0.38000000       0.38000000       0.38000000       0.38000000       0.38000000       0.38000000       0.38000000       0.38000000       0.38000000       0.38000000       0.38000000       0.38000000       0.38000000       0.38000000       0.38000000       0.38000000       0.38000000       0.38000000       0.38000000       0.38000000
           0.38000000       0.38000000       0.38000000       0.38000000       0.38000000       0.38000000       0.38000000       0.38000000       0.38000000       0.38000000       0.38000000       0.38000000       0.38000000       0.38000000       0.38000000       0.38000000       0.38000000       0.38000000       0.38000000       0.38000000       0.38000000       0.38000000       0.38000000       0.38000000       0.38000000       0.38000000
           0.38000000       0.38000000       0.38000000       0.38000000       0.38000000       0.38000000       0.38000000       0.38000000       0.38000000       0.38000000       0.38000000       0.38000000       0.38000000       0.38000000       0.38000000       0.38000000       0.38000000       0.38000000       0.38000000       0.38000000       0.38000000       0.38000000       0.38000000       0.38000000       0.38000000       0.38000000
           0.38000000       0.38000000       0.38000000       0.38000000       0.38000000       0.38000000       0.38000000       0.38000000       0.38000000       0.38000000       0.38000000       0.38000000       0.38000000       0.38000000       0.38000000       0.38000000       0.38000000       0.38000000       0.38000000       0.38000000       0.38000000       0.38000000       0.38000000       0.38000000       0.38000000       0.38000000
           0.38000000       0.38000000       0.38000000       0.38000000       0.38000000       0.38000000       0.38000000       0.38000000       0.38000000       0.38000000       0.38000000       0.38000000       0.38000000       0.38000000       0.38000000       0.38000000       0.38000000       0.38000000       0.38000000       0.38000000       0.38000000       0.38000000       0.38000000       0.38000000       0.38000000       0.38000000
           0.38000000       0.38000000       0.38000000       0.38000000       0.38000000       0.38000000       0.38000000       0.38000000       0.38000000       0.38000000       0.38000000       0.38000000       0.38000000       0.38000000       0.38000000       0.38000000       0.38000000       0.38000000       0.38000000       0.38000000       0.38000000       0.38000000       0.38000000       0.38000000       0.38000000       0.38000000
           0.38000000       0.38000000       0.38000000       0.38000000       0.38000000       0.38000000       0.38000000       0.38000000       0.38000000       0.38000000       0.38000000       0.38000000       0.38000000       0.38000000       0.38000000       0.38000000       0.38000000       0.38000000       0.38000000       0.38000000       0.38000000       0.38000000       0.38000000       0.38000000       0.38000000       0.38000000
           0.38000000       0.38000000       0.38000000       0.38000000       0.38000000       0.38000000       0.38000000       0.38000000       0.38000000       0.38000000       0.38000000       0.38000000       0.38000000       0.38000000       0.38000000       0.38000000       0.38000000       0.38000000       0.38000000       0.38000000       0.38000000       0.38000000       0.38000000       0.38000000       0.38000000       0.38000000
           0.38000000       0.38000000       0.38000000       0.38000000       0.38000000       0.38000000       0.38000000       0.38000000       0.38000000       0.38000000       0.38000000       0.38000000       0.38000000       0.38000000       0.38000000       0.38000000       0.38000000       0.38000000       0.38000000       0.38000000       0.38000000       0.38000000       0.38000000       0.38000000       0.38000000       0.38000000
           0.38000000       0.38000000       0.38000000       0.38000000       0.38000000       0.38000000       0.38000000       0.38000000       0.38000000       0.38000000       0.38000000       0.38000000       0.38000000       0.38000000       0.38000000       0.38000000       0.38000000       0.38000000       0.38000000       0.38000000       0.38000000       0.38000000       0.38000000       0.38000000       0.38000000       0.38000000
           0.38000000       0.38000000       0.38000000       0.38000000       0.38000000       0.38000000       0.38000000       0.38000000       0.38000000       0.38000000       0.38000000       0.38000000       0.38000000       0.38000000       0.38000000       0.38000000       0.38000000       0.38000000       0.38000000       0.38000000       0.38000000       0.38000000       0.38000000       0.38000000       0.38000000       0.38000000
           0.38000000       0.38000000       0.38000000       0.38000000       0.38000000       0.38000000       0.38000000       0.38000000       0.38000000       0.38000000       0.38000000       0.38000000       0.38000000       0.38000000       0.38000000       0.38000000       0.38000000       0.38000000       0.38000000       0.38000000       0.38000000       0.38000000       0.38000000       0.38000000       0.38000000       0.38000000
           0.38000000       0.38000000       0.38000000       0.38000000       0.38000000       0.38000000       0.38000000       0.38000000       0.38000000       0.38000000       0.38000000       0.38000000       0.38000000       0.38000000       0.38000000       0.38000000       0.38000000       0.38000000       0.38000000       0.38000000       0.38000000       0.38000000       0.38000000       0.38000000       0.38000000       0.38000000
           0.38000000       0.38000000       0.38000000       0.38000000       0.38000000       0.38000000       0.38000000       0.38000000       0.38000000       0.38000000       0.38000000       0.38000000       0.38000000       0.38000000       0.38000000       0.38000000       0.38000000       0.38000000       0.38000000       0.38000000       0.38000000       0.38000000       0.38000000       0.38000000       0.38000000       0.38000000
           0.38000000       0.38000000       0.38000000       0.38000000       0.38000000       0.38000000       0.38000000       0.38000000       0.38000000       0.38000000       0.38000000       0.38000000       0.38000000       0.38000000       0.38000000       0.38000000       0.38000000       0.38000000       0.38000000       0.38000000       0.38000000       0.38000000       0.38000000       0.38000000       0.38000000       0.38000000
           0.38000000       0.38000000       0.38000000       0.38000000       0.38000000       0.38000000       0.38000000       0.38000000       0.38000000       0.38000000       0.38000000       0.38000000       0.38000000       0.38000000       0.38000000       0.38000000       0.38000000       0.38000000       0.38000000       0.38000000       0.38000000       0.38000000       0.38000000       0.38000000       0.38000000       0.38000000
           0.38000000       0.38000000       0.38000000       0.38000000       0.38000000       0.38000000       0.38000000       0.38000000       0.38000000       0.38000000       0.38000000       0.38000000       0.38000000       0.38000000       0.38000000       0.38000000       0.38000000       0.38000000       0.38000000       0.38000000       0.38000000       0.38000000       0.38000000       0.38000000       0.38000000       0.38000000
           0.38000000       0.38000000       0.38000000       0.38000000       0.38000000       0.38000000       0.38000000       0.38000000       0.38000000       0.38000000       0.38000000       0.38000000       0.38000000       0.38000000       0.38000000       0.38000000       0.38000000       0.38000000       0.38000000       0.38000000       0.38000000       0.38000000       0.38000000       0.38000000       0.38000000       0.38000000
           0.38000000       0.38000000       0.38000000       0.38000000       0.38000000       0.38000000       0.38000000       0.38000000       0.38000000       0.38000000       0.38000000       0.38000000       0.38000000       0.38000000       0.38000000       0.38000000       0.38000000       0.38000000       0.38000000       0.38000000       0.38000000       0.38000000       0.38000000       0.38000000       0.38000000       0.38000000
           0.38000000       0.38000000       0.38000000       0.38000000       0.38000000       0.38000000       0.38000000       0.38000000       0.38000000       0.38000000       0.38000000       0.38000000       0.38000000       0.38000000       0.38000000       0.38000000       0.38000000       0.38000000       0.38000000       0.38000000       0.38000000       0.38000000       0.38000000       0.38000000       0.38000000       0.38000000
           0.38000000       0.38000000       0.38000000       0.38000000       0.38000000       0.38000000       0.38000000       0.38000000       0.38000000       0.38000000       0.38000000       0.38000000       0.38000000       0.38000000       0.38000000       0.38000000       0.38000000       0.38000000       0.38000000       0.38000000       0.38000000       0.38000000       0.38000000       0.38000000       0.38000000       0.38000000
           0.38000000       0.38000000       0.38000000       0.38000000       0.38000000       0.38000000       0.38000000       0.38000000       0.38000000       0.38000000       0.38000000       0.38000000       0.38000000       0.38000000       0.38000000       0.38000000       0.38000000       0.38000000       0.38000000       0.38000000       0.38000000       0.38000000       0.38000000       0.38000000       0.38000000       0.38000000
           0.38000000       0.38000000       0.38000000       0.38000000       0.38000000       0.38000000       0.38000000       0.38000000       0.38000000       0.38000000       0.38000000       0.38000000       0.38000000       0.38000000       0.38000000       0.38000000       0.38000000       0.38000000       0.38000000       0.38000000       0.38000000       0.38000000       0.38000000       0.38000000       0.38000000       0.38000000
           0.38000000       0.38000000       0.38000000       0.38000000       0.38000000       0.38000000       0.38000000       0.38000000       0.38000000       0.38000000       0.38000000       0.38000000       0.38000000       0.38000000       0.38000000       0.38000000       0.38000000       0.38000000       0.38000000       0.38000000       0.38000000       0.38000000       0.38000000       0.38000000       0.38000000       0.38000000
           0.38000000       0.38000000       0.38000000       0.38000000       0.38000000       0.38000000       0.38000000       0.38000000       0.38000000       0.38000000       0.38000000       0.38000000       0.38000000       0.38000000       0.38000000       0.38000000       0.38000000       0.38000000       0.38000000       0.38000000       0.38000000       0.38000000       0.38000000       0.38000000       0.38000000       0.38000000
           0.38000000       0.38000000       0.38000000       0.38000000       0.38000000       0.38000000       0.38000000       0.38000000       0.38000000       0.38000000       0.38000000       0.38000000       0.38000000       0.38000000       0.38000000       0.38000000       0.38000000       0.38000000       0.38000000       0.38000000       0.38000000       0.38000000       0.38000000       0.38000000       0.38000000       0.38000000
           0.38000000       0.38000000       0.38000000       0.38000000       0.38000000       0.38000000       0.38000000       0.38000000       0.38000000       0.38000000       0.38000000       0.38000000       0.38000000       0.38000000       0.38000000       0.38000000       0.38000000       0.38000000       0.38000000       0.38000000       0.38000000       0.38000000       0.38000000       0.38000000       0.38000000       0.38000000
           0.38000000       0.38000000       0.38000000       0.38000000       0.38000000       0.38000000       0.38000000       0.38000000       0.38000000       0.38000000       0.38000000       0.38000000       0.38000000       0.38000000       0.38000000       0.38000000       0.38000000       0.38000000       0.38000000       0.38000000       0.38000000       0.38000000       0.38000000       0.38000000       0.38000000       0.38000000
           0.38000000       0.38000000       0.38000000       0.38000000       0.38000000       0.38000000       0.38000000       0.38000000       0.38000000       0.38000000       0.38000000       0.38000000       0.38000000       0.38000000       0.38000000       0.38000000       0.38000000       0.38000000       0.38000000       0.38000000       0.38000000       0.38000000       0.38000000       0.38000000       0.38000000       0.38000000
           0.38000000       0.38000000       0.38000000       0.38000000       0.38000000       0.38000000       0.38000000       0.38000000       0.38000000       0.38000000       0.38000000       0.38000000       0.38000000       0.38000000       0.38000000       0.38000000       0.38000000       0.38000000       0.38000000       0.38000000       0.38000000       0.38000000       0.38000000       0.38000000       0.38000000       0.38000000
           0.38000000       0.38000000       0.38000000       0.38000000       0.38000000       0.38000000       0.38000000       0.38000000       0.38000000       0.38000000       0.38000000       0.38000000       0.38000000       0.38000000       0.38000000       0.38000000       0.38000000       0.38000000       0.38000000       0.38000000       0.38000000       0.38000000       0.38000000       0.38000000       0.38000000       0.38000000
           0.38000000       0.38000000       0.38000000       0.38000000       0.38000000       0.38000000       0.38000000       0.38000000       0.38000000       0.38000000       0.38000000       0.38000000       0.38000000       0.38000000       0.38000000       0.38000000       0.38000000       0.38000000       0.38000000       0.38000000       0.38000000       0.38000000       0.38000000       0.38000000       0.38000000       0.38000000
           0.38000000       0.38000000       0.38000000       0.38000000       0.38000000       0.38000000       0.38000000       0.38000000       0.38000000       0.38000000       0.38000000       0.38000000       0.38000000       0.38000000       0.38000000       0.38000000       0.38000000       0.38000000       0.38000000       0.38000000       0.38000000       0.38000000       0.38000000       0.38000000       0.38000000       0.38000000
           0.38000000       0.38000000       0.38000000       0.38000000       0.38000000       0.38000000       0.38000000       0.38000000       0.38000000       0.38000000       0.38000000       0.38000000       0.38000000       0.38000000       0.38000000       0.38000000       0.38000000       0.38000000       0.38000000       0.38000000       0.38000000       0.38000000       0.38000000       0.38000000       0.38000000       0.38000000
           0.38000000       0.38000000       0.38000000       0.38000000       0.38000000       0.38000000       0.38000000       0.38000000       0.38000000       0.38000000       0.38000000       0.38000000       0.38000000       0.38000000       0.38000000       0.38000000       0.38000000       0.38000000       0.38000000       0.38000000       0.38000000       0.38000000       0.38000000       0.38000000       0.38000000       0.38000000
           0.38000000       0.38000000       0.38000000       0.38000000       0.38000000       0.38000000       0.38000000       0.38000000       0.38000000       0.38000000       0.38000000       0.38000000       0.38000000       0.38000000       0.38000000       0.38000000       0.38000000       0.38000000       0.38000000       0.38000000       0.38000000       0.38000000       0.38000000       0.38000000       0.38000000       0.38000000
           0.38000000       0.38000000       0.38000000       0.38000000       0.38000000       0.38000000       0.38000000       0.38000000       0.38000000       0.38000000       0.38000000       0.38000000       0.38000000       0.38000000       0.38000000       0.38000000       0.38000000       0.38000000       0.38000000       0.38000000       0.38000000       0.38000000       0.38000000       0.38000000       0.38000000       0.38000000
           0.38000000       0.38000000       0.38000000       0.38000000       0.38000000       0.38000000       0.38000000       0.38000000       0.38000000       0.38000000       0.38000000       0.38000000       0.38000000       0.38000000       0.38000000       0.38000000       0.38000000       0.38000000       0.38000000       0.38000000       0.38000000       0.38000000       0.38000000       0.38000000       0.38000000       0.38000000
           0.38000000       0.38000000       0.38000000       0.38000000       0.38000000       0.38000000       0.38000000       0.38000000       0.38000000       0.38000000       0.38000000       0.38000000       0.38000000       0.38000000       0.38000000       0.38000000       0.38000000       0.38000000       0.38000000       0.38000000       0.38000000       0.38000000       0.38000000       0.38000000       0.38000000       0.38000000
           0.38000000       0.38000000       0.38000000       0.38000000       0.38000000       0.38000000       0.38000000       0.38000000       0.38000000       0.38000000       0.38000000       0.38000000       0.38000000       0.38000000       0.38000000       0.38000000       0.38000000       0.38000000       0.38000000       0.38000000       0.38000000       0.38000000       0.38000000       0.38000000       0.38000000       0.38000000
           0.38000000       0.38000000       0.38000000       0.38000000       0.38000000       0.38000000       0.38000000       0.38000000       0.38000000       0.38000000       0.38000000       0.38000000       0.38000000       0.38000000       0.38000000       0.38000000       0.38000000       0.38000000       0.38000000       0.38000000       0.38000000       0.38000000       0.38000000       0.38000000       0.38000000       0.38000000
           0.38000000       0.38000000       0.38000000       0.38000000       0.38000000       0.38000000       0.38000000       0.38000000       0.38000000       0.38000000       0.38000000       0.38000000       0.38000000       0.38000000       0.38000000       0.38000000       0.38000000       0.38000000       0.38000000       0.38000000       0.38000000       0.38000000       0.38000000       0.38000000       0.38000000       0.38000000
           0.38000000       0.38000000       0.38000000       0.38000000       0.38000000       0.38000000       0.38000000       0.38000000       0.38000000       0.38000000       0.38000000       0.38000000       0.38000000       0.38000000       0.38000000       0.38000000       0.38000000       0.38000000       0.38000000       0.38000000       0.38000000       0.38000000       0.38000000       0.38000000       0.38000000       0.38000000
           0.38000000       0.38000000       0.38000000       0.38000000       0.38000000       0.38000000       0.38000000       0.38000000       0.38000000       0.38000000       0.38000000       0.38000000       0.38000000       0.38000000       0.38000000       0.38000000       0.38000000       0.38000000       0.38000000       0.38000000       0.38000000       0.38000000       0.38000000       0.38000000       0.38000000       0.38000000
    INTERNAL  FACTOR  1.0
           0.40000000       0.40000000       0.40000000       0.40000000       0.40000000       0.40000000       0.40000000       0.40000000       0.40000000       0.40000000       0.40000000       0.40000000       0.40000000       0.40000000       0.40000000       0.40000000       0.40000000       0.40000000       0.40000000       0.40000000       0.40000000       0.40000000       0.40000000       0.40000000       0.40000000       0.40000000
           0.40000000       0.40000000       0.40000000       0.40000000       0.40000000       0.40000000       0.40000000       0.40000000       0.40000000       0.40000000       0.40000000       0.40000000       0.40000000       0.40000000       0.40000000       0.40000000       0.40000000       0.40000000       0.40000000       0.40000000       0.40000000       0.40000000       0.40000000       0.40000000       0.40000000       0.40000000
           0.40000000       0.40000000       0.40000000       0.40000000       0.40000000       0.40000000       0.40000000       0.40000000       0.40000000       0.40000000       0.40000000       0.40000000       0.40000000       0.40000000       0.40000000       0.40000000       0.40000000       0.40000000       0.40000000       0.40000000       0.40000000       0.40000000       0.40000000       0.40000000       0.40000000       0.40000000
           0.40000000       0.40000000       0.40000000       0.40000000       0.40000000       0.40000000       0.40000000       0.40000000       0.40000000       0.40000000       0.40000000       0.40000000       0.40000000       0.40000000       0.40000000       0.40000000       0.40000000       0.40000000       0.40000000       0.40000000       0.40000000       0.40000000       0.40000000       0.40000000       0.40000000       0.40000000
           0.40000000       0.40000000       0.40000000       0.40000000       0.40000000       0.40000000       0.40000000       0.40000000       0.40000000       0.40000000       0.40000000       0.40000000       0.40000000       0.40000000       0.40000000       0.40000000       0.40000000       0.40000000       0.40000000       0.40000000       0.40000000       0.40000000       0.40000000       0.40000000       0.40000000       0.40000000
           0.40000000       0.40000000       0.40000000       0.40000000       0.40000000       0.40000000       0.40000000       0.40000000       0.40000000       0.40000000       0.40000000       0.40000000       0.40000000       0.40000000       0.40000000       0.40000000       0.40000000       0.40000000       0.40000000       0.40000000       0.40000000       0.40000000       0.40000000       0.40000000       0.40000000       0.40000000
           0.40000000       0.40000000       0.40000000       0.40000000       0.40000000       0.40000000       0.40000000       0.40000000       0.40000000       0.40000000       0.40000000       0.40000000       0.40000000       0.40000000       0.40000000       0.40000000       0.40000000       0.40000000       0.40000000       0.40000000       0.40000000       0.40000000       0.40000000       0.40000000       0.40000000       0.40000000
           0.40000000       0.40000000       0.40000000       0.40000000       0.40000000       0.40000000       0.40000000       0.40000000       0.40000000       0.40000000       0.40000000       0.40000000       0.40000000       0.40000000       0.40000000       0.40000000       0.40000000       0.40000000       0.40000000       0.40000000       0.40000000       0.40000000       0.40000000       0.40000000       0.40000000       0.40000000
           0.40000000       0.40000000       0.40000000       0.40000000       0.40000000       0.40000000       0.40000000       0.40000000       0.40000000       0.40000000       0.40000000       0.40000000       0.40000000       0.40000000       0.40000000       0.40000000       0.40000000       0.40000000       0.40000000       0.40000000       0.40000000       0.40000000       0.40000000       0.40000000       0.40000000       0.40000000
           0.40000000       0.40000000       0.40000000       0.40000000       0.40000000       0.40000000       0.40000000       0.40000000       0.40000000       0.40000000       0.40000000       0.40000000       0.40000000       0.40000000       0.40000000       0.40000000       0.40000000       0.40000000       0.40000000       0.40000000       0.40000000       0.40000000       0.40000000       0.40000000       0.40000000       0.40000000
           0.40000000       0.40000000       0.40000000       0.40000000       0.40000000       0.40000000       0.40000000       0.40000000       0.40000000       0.40000000       0.40000000       0.40000000       0.40000000       0.40000000       0.40000000       0.40000000       0.40000000       0.40000000       0.40000000       0.40000000       0.40000000       0.40000000       0.40000000       0.40000000       0.40000000       0.40000000
           0.40000000       0.40000000       0.40000000       0.40000000       0.40000000       0.40000000       0.40000000       0.40000000       0.40000000       0.40000000       0.40000000       0.40000000       0.40000000       0.40000000       0.40000000       0.40000000       0.40000000       0.40000000       0.40000000       0.40000000       0.40000000       0.40000000       0.40000000       0.40000000       0.40000000       0.40000000
           0.40000000       0.40000000       0.40000000       0.40000000       0.40000000       0.40000000       0.40000000       0.40000000       0.40000000       0.40000000       0.40000000       0.40000000       0.40000000       0.40000000       0.40000000       0.40000000       0.40000000       0.40000000       0.40000000       0.40000000       0.40000000       0.40000000       0.40000000       0.40000000       0.40000000       0.40000000
           0.40000000       0.40000000       0.40000000       0.40000000       0.40000000       0.40000000       0.40000000       0.40000000       0.40000000       0.40000000       0.40000000       0.40000000       0.40000000       0.40000000       0.40000000       0.40000000       0.40000000       0.40000000       0.40000000       0.40000000       0.40000000       0.40000000       0.40000000       0.40000000       0.40000000       0.40000000
           0.40000000       0.40000000       0.40000000       0.40000000       0.40000000       0.40000000       0.40000000       0.40000000       0.40000000       0.40000000       0.40000000       0.40000000       0.40000000       0.40000000       0.40000000       0.40000000       0.40000000       0.40000000       0.40000000       0.40000000       0.40000000       0.40000000       0.40000000       0.40000000       0.40000000       0.40000000
           0.40000000       0.40000000       0.40000000       0.40000000       0.40000000       0.40000000       0.40000000       0.40000000       0.40000000       0.40000000       0.40000000       0.40000000       0.40000000       0.40000000       0.40000000       0.40000000       0.40000000       0.40000000       0.40000000       0.40000000       0.40000000       0.40000000       0.40000000       0.40000000       0.40000000       0.40000000