# File generated by Flopy version 3.9.2 on 11/21/2025 at 00:17:38.
BEGIN options
  SCHEME  tvd
END options

