# File generated by Flopy version 3.9.2 on 11/21/2025 at 00:17:38.
BEGIN options
END options

BEGIN griddata
  alh
    CONSTANT       3.04878049
  ath1
    CONSTANT       0.30487805
END griddata

