# File generated by Flopy version 3.9.2 on 11/20/2025 at 22:18:52.
BEGIN options
END options

BEGIN griddata
  alh
    CONSTANT       3.04878049
  ath1
    CONSTANT       0.30487805
END griddata

