# File generated by Flopy version 3.9.2 on 11/20/2025 at 22:18:52.
BEGIN options
END options

BEGIN griddata
  porosity  LAYERED
    INTERNAL  FACTOR  1.0
           0.38000000       0.38000000       0.38000000       0.38000000       0.38000000       0.38000000       0.38000000       0.38000000       0.38000000       0.38000000       0.38000000       0.38000000       0.38000000       0.38000000       0.38000000       0.38000000       0.38000000       0.38000000       0.38000000       0.38000000       0.38000000       0.38000000       0.38000000       0.38000000       0.38000000       0.38000000
           0.38000000       0.38000000       0.38000000       0.38000000       0.38000000       0.38000000       0.38000000       0.38000000       0.38000000       0.38000000       0.38000000       0.38000000       0.38000000       0.38000000       0.38000000       0.38000000       0.38000000       0.38000000       0.38000000       0.38000000       0.38000000       0.38000000       0.38000000       0.38000000       0.38000000       0.38000000
           0.38000000       0.38000000       0.38000000       0.38000000       0.38000000       0.38000000       0.38000000       0.38000000       0.38000000       0.38000000       0.38000000       0.38000000       0.38000000       0.38000000       0.38000000       0.38000000       0.38000000       0.38000000       0.38000000       0.38000000       0.38000000       0.38000000       0.38000000       0.38000000       0.38000000       0.38000000
           0.38000000       0.38000000       0.38000000       0.38000000       0.38000000       0.38000000       0.38000000       0.38000000       0.38000000       0.38000000       0.38000000       0.38000000       0.38000000       0.38000000       0.38000000       0.38000000       0.38000000       0.38000000       0.38000000       0.38000000       0.38000000       0.38000000       0.38000000       0.38000000       0.38000000       0.38000000
           0.38000000       0.38000000       0.38000000       0.38000000       0.38000000       0.38000000       0.38000000       0.38000000       0.38000000       0.38000000       0.38000000       0.38000000       0.38000000       0.38000000       0.38000000       0.38000000       0.38000000       0.38000000       0.38000000       0.38000000       0.38000000       0.38000000       0.38000000       0.38000000       0.38000000       0.38000000
           0.38000000       0.38000000       0.38000000       0.38000000       0.38000000       0.38000000       0.38000000       0.38000000       0.38000000       0.38000000       0.38000000       0.38000000       0.38000000       0.38000000       0.38000000       0.38000000       0.38000000       0.38000000       0.38000000       0.38000000       0.38000000       0.38000000       0.38000000       0.38000000       0.38000000       0.38000000
           0.38000000       0.38000000       0.38000000       0.38000000       0.38000000       0.38000000       0.38000000       0.38000000       0.38000000       0.38000000       0.38000000       0.38000000       0.38000000       0.38000000       0.38000000       0.38000000       0.38000000       0.38000000       0.38000000       0.38000000       0.38000000       0.38000000       0.38000000       0.38000000       0.38000000       0.38000000
           0.38000000       0.38000000       0.38000000       0.38000000       0.38000000       0.38000000       0.38000000       0.38000000       0.38000000       0.38000000       0.38000000       0.38000000       0.38000000       0.38000000       0.38000000       0.38000000       0.38000000       0.38000000       0.38000000       0.38000000       0.38000000       0.38000000       0.38000000       0.38000000       0.38000000       0.38000000
           0.38000000       0.38000000       0.38000000       0.38000000       0.38000000       0.38000000       0.38000000       0.38000000       0.38000000       0.38000000       0.38000000       0.38000000       0.38000000       0.38000000       0.38000000       0.38000000       0.38000000       0.38000000       0.38000000       0.38000000       0.38000000       0.38000000       0.38000000       0.38000000       0.38000000       0.38000000
           0.38000000       0.38000000       0.38000000       0.38000000       0.38000000       0.38000000       0.38000000       0.38000000       0.38000000       0.38000000       0.38000000       0.38000000       0.38000000       0.38000000       0.38000000       0.38000000       0.38000000       0.38000000       0.38000000       0.38000000       0.38000000       0.38000000       0.38000000       0.38000000       0.38000000       0.38000000
           0.38000000       0.38000000       0.38000000       0.38000000       0.38000000       0.38000000       0.38000000       0.38000000       0.38000000       0.38000000       0.38000000       0.38000000       0.38000000       0.38000000       0.38000000       0.38000000       0.38000000       0.38000000       0.38000000       0.38000000       0.38000000       0.38000000       0.38000000       0.38000000       0.38000000       0.38000000
           0.38000000       0.38000000       0.38000000       0.38000000       0.38000000       0.38000000       0.38000000       0.38000000       0.38000000       0.38000000       0.38000000       0.38000000       0.38000000       0.38000000       0.38000000       0.38000000       0.38000000       0.38000000       0.38000000       0.38000000       0.38000000       0.38000000       0.38000000       0.38000000       0.38000000       0.38000000
           0.38000000       0.38000000       0.38000000       0.38000000       0.38000000       0.38000000       0.38000000       0.38000000       0.38000000       0.38000000       0.38000000       0.38000000       0.38000000       0.38000000       0.38000000       0.38000000       0.38000000       0.38000000       0.38000000       0.38000000       0.38000000       0.38000000       0.38000000       0.38000000       0.38000000       0.38000000
           0.38000000       0.38000000       0.38000000       0.38000000       0.38000000       0.38000000       0.38000000       0.38000000       0.38000000       0.38000000       0.38000000       0.38000000       0.38000000       0.38000000       0.38000000       0.38000000       0.38000000       0.38000000       0.38000000       0.38000000       0.38000000       0.38000000       0.38000000       0.38000000       0.38000000       0.38000000
           0.38000000       0.38000000       0.38000000       0.38000000       0.38000000       0.38000000       0.38000000       0.38000000       0.38000000       0.38000000       0.38000000       0.38000000       0.38000000       0.38000000       0.38000000       0.38000000       0.38000000       0.38000000       0.38000000       0.38000000       0.38000000       0.38000000       0.38000000       0.38000000       0.38000000       0.38000000
           0.38000000       0.38000000       0.38000000       0.38000000       0.38000000       0.38000000       0.38000000       0.38000000       0.38000000       0.38000000       0.38000000       0.38000000       0.38000000       0.38000000       0.38000000       0.38000000       0.38000000       0.38000000       0.38000000       0.38000000       0.38000000       0.38000000       0.38000000       0.38000000       0.38000000       0.38000000
           0.38000000       0.38000000       0.38000000       0.38000000       0.38000000       0.38000000       0.38000000       0.38000000       0.38000000       0.38000000       0.38000000       0.38000000       0.38000000       0.38000000       0.38000000       0.38000000       0.38000000       0.38000000       0.38000000       0.38000000       0.38000000       0.38000000       0.38000000       0.38000000       0.38000000       0.38000000
           0.38000000       0.38000000       0.38000000       0.38000000       0.38000000       0.38000000       0.38000000       0.38000000       0.38000000       0.38000000       0.38000000       0.38000000       0.38000000       0.38000000       0.38000000       0.38000000       0.38000000       0.38000000       0.38000000       0.38000000       0.38000000       0.38000000       0.38000000       0.38000000       0.38000000       0.38000000
           0.38000000       0.38000000       0.38000000       0.38000000       0.38000000       0.38000000       0.38000000       0.38000000       0.38000000       0.38000000       0.38000000       0.38000000       0.38000000       0.38000000       0.38000000       0.38000000       0.38000000       0.38000000       0.38000000       0.38000000       0.38000000       0.38000000       0.38000000       0.38000000       0.38000000       0.38000000
           0.38000000       0.38000000       0.38000000       0.38000000       0.38000000       0.38000000       0.38000000       0.38000000       0.38000000       0.38000000       0.38000000       0.38000000       0.38000000       0.38000000       0.38000000       0.38000000       0.38000000       0.38000000       0.38000000       0.38000000       0.38000000       0.38000000       0.38000000       0.38000000       0.38000000       0.38000000
           0.38000000       0.38000000       0.38000000       0.38000000       0.38000000       0.38000000       0.38000000       0.38000000       0.38000000       0.38000000       0.38000000       0.38000000       0.38000000       0.38000000       0.38000000       0.38000000       0.38000000       0.38000000       0.38000000       0.38000000       0.38000000       0.38000000       0.38000000       0.38000000       0.38000000       0.38000000
           0.38000000       0.38000000       0.38000000       0.38000000       0.38000000       0.38000000       0.38000000       0.38000000       0.38000000       0.38000000       0.38000000       0.38000000       0.38000000       0.38000000       0.38000000       0.38000000       0.38000000       0.38000000       0.38000000       0.38000000       0.38000000       0.38000000       0.38000000       0.38000000       0.38000000       0.38000000
           0.38000000       0.38000000       0.38000000       0.38000000       0.38000000       0.38000000       0.38000000       0.38000000       0.38000000       0.38000000       0.38000000       0.38000000       0.38000000       0.38000000       0.38000000       0.38000000       0.38000000       0.38000000       0.38000000       0.38000000       0.38000000       0.38000000       0.38000000       0.38000000       0.38000000       0.38000000
           0.38000000       0.38000000       0.38000000       0.38000000       0.38000000       0.38000000       0.38000000       0.38000000       0.38000000       0.38000000       0.38000000       0.38000000       0.38000000       0.38000000       0.38000000       0.38000000       0.38000000       0.38000000       0.38000000       0.38000000       0.38000000       0.38000000       0.38000000       0.38000000       0.38000000       0.38000000
           0.38000000       0.38000000       0.38000000       0.38000000       0.38000000       0.38000000       0.38000000       0.38000000       0.38000000       0.38000000       0.38000000       0.38000000       0.38000000       0.38000000       0.38000000       0.38000000       0.38000000       0.38000000       0.38000000       0.38000000       0.38000000       0.38000000       0.38000000       0.38000000       0.38000000       0.38000000
           0.38000000       0.38000000       0.38000000       0.38000000       0.38000000       0.38000000       0.38000000       0.38000000       0.38000000       0.38000000       0.38000000       0.38000000       0.38000000       0.38000000       0.38000000       0.38000000       0.38000000       0.38000000       0.38000000       0.38000000       0.38000000       0.38000000       0.38000000       0.38000000       0.38000000       0.38000000
           0.38000000       0.38000000       0.38000000       0.38000000       0.38000000       0.38000000       0.38000000       0.38000000       0.38000000       0.38000000       0.38000000       0.38000000       0.38000000       0.38000000       0.38000000       0.38000000       0.38000000       0.38000000       0.38000000       0.38000000       0.38000000       0.38000000       0.38000000       0.38000000       0.38000000       0.38000000
           0.38000000       0.38000000       0.38000000       0.38000000       0.38000000       0.38000000       0.38000000       0.38000000       0.38000000       0.38000000       0.38000000       0.38000000       0.38000000       0.38000000       0.38000000       0.38000000       0.38000000       0.38000000       0.38000000       0.38000000       0.38000000       0.38000000       0.38000000       0.38000000       0.38000000       0.38000000
           0.38000000       0.38000000       0.38000000       0.38000000       0.38000000       0.38000000       0.38000000       0.38000000       0.38000000       0.38000000       0.38000000       0.38000000       0.38000000       0.38000000       0.38000000       0.38000000       0.38000000       0.38000000       0.38000000       0.38000000       0.38000000       0.38000000       0.38000000       0.38000000       0.38000000       0.38000000
           0.38000000       0.38000000       0.38000000       0.38000000       0.38000000       0.38000000       0.38000000       0.38000000       0.38000000       0.38000000       0.38000000       0.38000000       0.38000000       0.38000000       0.38000000       0.38000000       0.38000000       0.38000000       0.38000000       0.38000000       0.38000000       0.38000000       0.38000000       0.38000000       0.38000000       0.38000000
           0.38000000       0.38000000       0.38000000       0.38000000       0.38000000       0.38000000       0.38000000       0.38000000       0.38000000       0.38000000       0.38000000       0.38000000       0.38000000       0.38000000       0.38000000       0.38000000       0.38000000       0.38000000       0.38000000       0.38000000       0.38000000       0.38000000       0.38000000       0.38000000       0.38000000       0.38000000
           0.38000000       0.38000000       0.38000000       0.38000000       0.38000000       0.38000000       0.38000000       0.38000000       0.38000000       0.38000000       0.38000000       0.38000000       0.38000000       0.38000000       0.38000000       0.38000000       0.38000000       0.38000000       0.38000000       0.38000000       0.38000000       0.38000000       0.38000000       0.38000000       0.38000000       0.38000000
           0.38000000       0.38000000       0.38000000       0.38000000       0.38000000       0.38000000       0.38000000       0.38000000       0.38000000       0.38000000       0.38000000       0.38000000       0.38000000       0.38000000       0.38000000       0.38000000       0.38000000       0.38000000       0.38000000       0.38000000       0.38000000       0.38000000       0.38000000       0.38000000       0.38000000       0.38000000
           0.38000000       0.38000000       0.38000000       0.38000000       0.38000000       0.38000000       0.38000000       0.38000000       0.38000000       0.38000000       0.38000000       0.38000000       0.38000000       0.38000000       0.38000000       0.38000000       0.38000000       0.38000000       0.38000000       0.38000000       0.38000000       0.38000000       0.38000000       0.38000000       0.38000000       0.38000000
           0.38000000       0.38000000       0.38000000       0.38000000       0.38000000       0.38000000       0.38000000       0.38000000       0.38000000       0.38000000       0.38000000       0.38000000       0.38000000       0.38000000       0.38000000       0.38000000       0.38000000       0.38000000       0.38000000       0.38000000       0.38000000       0.38000000       0.38000000       0.38000000       0.38000000       0.38000000
           0.38000000       0.38000000       0.38000000       0.38000000       0.38000000       0.38000000       0.38000000       0.38000000       0.38000000       0.38000000       0.38000000       0.38000000       0.38000000       0.38000000       0.38000000       0.38000000       0.38000000       0.38000000       0.38000000       0.38000000       0.38000000       0.38000000       0.38000000       0.38000000       0.38000000       0.38000000
           0.38000000       0.38000000       0.38000000       0.38000000       0.38000000       0.38000000       0.38000000       0.38000000       0.38000000       0.38000000       0.38000000       0.38000000       0.38000000       0.38000000       0.38000000       0.38000000       0.38000000       0.38000000       0.38000000       0.38000000       0.38000000       0.38000000       0.38000000       0.38000000       0.38000000       0.38000000
           0.38000000       0.38000000       0.38000000       0.38000000       0.38000000       0.38000000       0.38000000       0.38000000       0.38000000       0.38000000       0.38000000       0.38000000       0.38000000       0.38000000       0.38000000       0.38000000       0.38000000       0.38000000       0.38000000       0.38000000       0.38000000       0.38000000       0.38000000       0.38000000       0.38000000       0.38000000
           0.38000000       0.38000000       0.38000000       0.38000000       0.38000000       0.38000000       0.38000000       0.38000000       0.38000000       0.38000000       0.38000000       0.38000000       0.38000000       0.38000000       0.38000000       0.38000000       0.38000000       0.38000000       0.38000000       0.38000000       0.38000000       0.38000000       0.38000000       0.38000000       0.38000000       0.38000000
           0.38000000       0.38000000       0.38000000       0.38000000       0.38000000       0.38000000       0.38000000       0.38000000       0.38000000       0.38000000       0.38000000       0.38000000       0.38000000       0.38000000       0.38000000       0.38000000       0.38000000       0.38000000       0.38000000       0.38000000       0.38000000       0.38000000       0.38000000       0.38000000       0.38000000       0.38000000
           0.38000000       0.38000000       0.38000000       0.38000000       0.38000000       0.38000000       0.38000000       0.38000000       0.38000000       0.38000000       0.38000000       0.38000000       0.38000000       0.38000000       0.38000000       0.38000000       0.38000000       0.38000000       0.38000000       0.38000000       0.38000000       0.38000000       0.38000000       0.38000000       0.38000000       0.38000000
           0.38000000       0.38000000       0.38000000       0.38000000       0.38000000       0.38000000       0.38000000       0.38000000       0.38000000       0.38000000       0.38000000       0.38000000       0.38000000       0.38000000       0.38000000       0.38000000       0.38000000       0.38000000       0.38000000       0.38000000       0.38000000       0.38000000       0.38000000       0.38000000       0.38000000       0.38000000
           0.38000000       0.38000000       0.38000000       0.38000000       0.38000000       0.38000000       0.38000000       0.38000000       0.38000000       0.38000000       0.38000000       0.38000000       0.38000000       0.38000000       0.38000000       0.38000000       0.38000000       0.38000000       0.38000000       0.38000000       0.38000000       0.38000000       0.38000000       0.38000000       0.38000000       0.38000000
           0.38000000       0.38000000       0.38000000       0.38000000       0.38000000       0.38000000       0.38000000       0.38000000       0.38000000       0.38000000       0.38000000       0.38000000       0.38000000       0.38000000       0.38000000       0.38000000       0.38000000       0.38000000       0.38000000       0.38000000       0.38000000       0.38000000       0.38000000       0.38000000       0.38000000       0.38000000
           0.38000000       0.38000000       0.38000000       0.38000000       0.38000000       0.38000000       0.38000000       0.38000000       0.38000000       0.38000000       0.38000000       0.38000000       0.38000000       0.38000000       0.38000000       0.38000000       0.38000000       0.38000000       0.38000000       0.38000000       0.38000000       0.38000000       0.38000000       0.38000000       0.38000000       0.38000000
           0.38000000       0.38000000       0.38000000       0.38000000       0.38000000       0.38000000       0.38000000       0.38000000       0.38000000       0.38000000       0.38000000       0.38000000       0.38000000       0.38000000       0.38000000       0.38000000       0.38000000       0.38000000       0.38000000       0.38000000       0.38000000       0.38000000       0.38000000       0.38000000       0.38000000       0.38000000
           0.38000000       0.38000000       0.38000000       0.38000000       0.38000000       0.38000000       0.38000000       0.38000000       0.38000000       0.38000000       0.38000000       0.38000000       0.38000000       0.38000000       0.38000000       0.38000000       0.38000000       0.38000000       0.38000000       0.38000000       0.38000000       0.38000000       0.38000000       0.38000000       0.38000000       0.38000000
           0.38000000       0.38000000       0.38000000       0.38000000       0.38000000       0.38000000       0.38000000       0.38000000       0.38000000       0.38000000       0.38000000       0.38000000       0.38000000       0.38000000       0.38000000       0.38000000       0.38000000       0.38000000       0.38000000       0.38000000       0.38000000       0.38000000       0.38000000       0.38000000       0.38000000       0.38000000
           0.38000000       0.38000000       0.38000000       0.38000000       0.38000000       0.38000000       0.38000000       0.38000000       0.38000000       0.38000000       0.38000000       0.38000000       0.38000000       0.38000000       0.38000000       0.38000000       0.38000000       0.38000000       0.38000000       0.38000000       0.38000000       0.38000000       0.38000000       0.38000000       0.38000000       0.38000000
           0.38000000       0.38000000       0.38000000       0.38000000       0.38000000       0.38000000       0.38000000       0.38000000       0.38000000       0.38000000       0.38000000       0.38000000       0.38000000       0.38000000       0.38000000       0.38000000       0.38000000       0.38000000       0.38000000       0.38000000       0.38000000       0.38000000       0.38000000       0.38000000       0.38000000       0.38000000
    INTERNAL  FACTOR  1.0
           0.40000000       0.40000000       0.40000000       0.40000000       0.40000000       0.40000000       0.40000000       0.40000000       0.40000000       0.40000000       0.40000000       0.40000000       0.40000000       0.40000000       0.40000000       0.40000000       0.40000000       0.40000000       0.40000000       0.40000000       0.40000000       0.40000000       0.40000000       0.40000000       0.40000000       0.40000000
           0.40000000       0.40000000       0.40000000       0.40000000       0.40000000       0.40000000       0.40000000       0.40000000       0.40000000       0.40000000       0.40000000       0.40000000       0.40000000       0.40000000       0.40000000       0.40000000       0.40000000       0.40000000       0.40000000       0.40000000       0.40000000       0.40000000       0.40000000       0.40000000       0.40000000       0.40000000
           0.40000000       0.40000000       0.40000000       0.40000000       0.40000000       0.40000000       0.40000000       0.40000000       0.40000000       0.40000000       0.40000000       0.40000000       0.40000000       0.40000000       0.40000000       0.40000000       0.40000000       0.40000000       0.40000000       0.40000000       0.40000000       0.40000000       0.40000000       0.40000000       0.40000000       0.40000000
           0.40000000       0.40000000       0.40000000       0.40000000       0.40000000       0.40000000       0.40000000       0.40000000       0.40000000       0.40000000       0.40000000       0.40000000       0.40000000       0.40000000       0.40000000       0.40000000       0.40000000       0.40000000       0.40000000       0.40000000       0.40000000       0.40000000       0.40000000       0.40000000       0.40000000       0.40000000
           0.40000000       0.40000000       0.40000000       0.40000000       0.40000000       0.40000000       0.40000000       0.40000000       0.40000000       0.40000000       0.40000000       0.40000000       0.40000000       0.40000000       0.40000000       0.40000000       0.40000000       0.40000000       0.40000000       0.40000000       0.40000000       0.40000000       0.40000000       0.40000000       0.40000000       0.40000000
           0.40000000       0.40000000       0.40000000       0.40000000       0.40000000       0.40000000       0.40000000       0.40000000       0.40000000       0.40000000       0.40000000       0.40000000       0.40000000       0.40000000       0.40000000       0.40000000       0.40000000       0.40000000       0.40000000       0.40000000       0.40000000       0.40000000       0.40000000       0.40000000       0.40000000       0.40000000
           0.40000000       0.40000000       0.40000000       0.40000000       0.40000000       0.40000000       0.40000000       0.40000000       0.40000000       0.40000000       0.40000000       0.40000000       0.40000000       0.40000000       0.40000000       0.40000000       0.40000000       0.40000000       0.40000000       0.40000000       0.40000000       0.40000000       0.40000000       0.40000000       0.40000000       0.40000000
           0.40000000       0.40000000       0.40000000       0.40000000       0.40000000       0.40000000       0.40000000       0.40000000       0.40000000       0.40000000       0.40000000       0.40000000       0.40000000       0.40000000       0.40000000       0.40000000       0.40000000       0.40000000       0.40000000       0.40000000       0.40000000       0.40000000       0.40000000       0.40000000       0.40000000       0.40000000
           0.40000000       0.40000000       0.40000000       0.40000000       0.40000000       0.40000000       0.40000000       0.40000000       0.40000000       0.40000000       0.40000000       0.40000000       0.40000000       0.40000000       0.40000000       0.40000000       0.40000000       0.40000000       0.40000000       0.40000000       0.40000000       0.40000000       0.40000000       0.40000000       0.40000000       0.40000000
           0.40000000       0.40000000       0.40000000       0.40000000       0.40000000       0.40000000       0.40000000       0.40000000       0.40000000       0.40000000       0.40000000       0.40000000       0.40000000       0.40000000       0.40000000       0.40000000       0.40000000       0.40000000       0.40000000       0.40000000       0.40000000       0.40000000       0.40000000       0.40000000       0.40000000       0.40000000
           0.40000000       0.40000000       0.40000000       0.40000000       0.40000000       0.40000000       0.40000000       0.40000000       0.40000000       0.40000000       0.40000000       0.40000000       0.40000000       0.40000000       0.40000000       0.40000000       0.40000000       0.40000000       0.40000000       0.40000000       0.40000000       0.40000000       0.40000000       0.40000000       0.40000000       0.40000000
           0.40000000       0.40000000       0.40000000       0.40000000       0.40000000       0.40000000       0.40000000       0.40000000       0.40000000       0.40000000       0.40000000       0.40000000       0.40000000       0.40000000       0.40000000       0.40000000       0.40000000       0.40000000       0.40000000       0.40000000       0.40000000       0.40000000       0.40000000       0.40000000       0.40000000       0.40000000
           0.40000000       0.40000000       0.40000000       0.40000000       0.40000000       0.40000000       0.40000000       0.40000000       0.40000000       0.40000000       0.40000000       0.40000000       0.40000000       0.40000000       0.40000000       0.40000000       0.40000000       0.40000000       0.40000000       0.40000000       0.40000000       0.40000000       0.40000000       0.40000000       0.40000000       0.40000000
           0.40000000       0.40000000       0.40000000       0.40000000       0.40000000       0.40000000       0.40000000       0.40000000       0.40000000       0.40000000       0.40000000       0.40000000       0.40000000       0.40000000       0.40000000       0.40000000       0.40000000       0.40000000       0.40000000       0.40000000       0.40000000       0.40000000       0.40000000       0.40000000       0.40000000       0.40000000
           0.40000000       0.40000000       0.40000000       0.40000000       0.40000000       0.40000000       0.40000000       0.40000000       0.40000000       0.40000000       0.40000000       0.40000000       0.40000000       0.40000000       0.40000000       0.40000000       0.40000000       0.40000000       0.40000000       0.40000000       0.40000000       0.40000000       0.40000000       0.40000000       0.40000000       0.40000000
           0.40000000       0.40000000       0.40000000       0.40000000       0.40000000       0.40000000       0.40000000       0.40000000       0.40000000       0.40000000       0.40000000       0.40000000       0.40000000       0.40000000       0.40000000       0.40000000       0.40000000       0.40000000       0.40000000       0.40000000       0.40000000       0.40000000       0.40000000       0.40000000       0.40000000       0.40000000