# File generated by Flopy version 3.9.2 on 11/20/2025 at 22:18:52.
BEGIN options
  SAVE_FLOWS
END options

BEGIN packages
  DIS6  gwt-es7.dis  dis
  IC6  gwt-es7.ic  ic
  ADV6  gwt-es7.adv  adv
  DSP6  gwt-es7.dsp  dsp
  MST6  gwt-es7.mst  mst
  SSM6  gwt-es7.ssm  ssm
  OC6  gwt-es7.oc  oc
END packages

