# File generated by Flopy version 3.9.2 on 11/20/2025 at 22:18:52.
BEGIN options
  BUDGET  FILEOUT  gwt-es7.cbc
  CONCENTRATION  FILEOUT  gwt-es7.ucn
  CONCENTRATION  PRINT_FORMAT  COLUMNS  10  WIDTH  15  DIGITS  6  GENERAL
END options

BEGIN period  1
  SAVE  CONCENTRATION  LAST
  SAVE  BUDGET  LAST
  PRINT  CONCENTRATION  LAST
  PRINT  BUDGET  LAST
END period  1

