# File generated by Flopy version 3.9.2 on 11/20/2025 at 22:18:52.
BEGIN options
  SCHEME  tvd
END options

