# File generated by Flopy version 3.9.2 on 11/21/2025 at 00:17:38.
BEGIN options
END options

BEGIN timing
  TDIS6  sim-es7.tdis
END timing

BEGIN models
  gwf6  gwf-es7.nam  gwf-es7
  gwt6  gwt-es7.nam  gwt-es7
END models

BEGIN exchanges
  GWF6-GWT6  es7.gwfgwt  gwf-es7  gwt-es7
END exchanges

BEGIN solutiongroup  1
  ims6  gwf-es7.ims  gwf-es7
  ims6  gwt-es7.ims  gwt-es7
END solutiongroup  1

