# File generated by Flopy version 3.9.2 on 11/18/2025 at 23:18:19.
BEGIN options
END options

BEGIN timing
  TDIS6  sim-es7.tdis
END timing

BEGIN models
  gwf6  gwf-es7.nam  gwf-es7
END models

BEGIN exchanges
END exchanges

BEGIN solutiongroup  1
  ims6  gwf-es7.ims  gwf-es7
END solutiongroup  1

