# File generated by Flopy version 3.9.2 on 11/21/2025 at 00:17:38.
BEGIN options
  TIME_UNITS  seconds
END options

BEGIN dimensions
  NPER  3
END dimensions

BEGIN perioddata
    8640.00000000  1       1.00000000
  3.15360000E+08  364       1.00000000
  3.15360000E+08  364       1.00000000
END perioddata

