# File generated by Flopy version 3.9.2 on 11/20/2025 at 22:18:51.
BEGIN options
  TIME_UNITS  seconds
END options

BEGIN dimensions
  NPER  2
END dimensions

BEGIN perioddata
    8640.00000000  1       1.00000000
  3.14496000E+07  364       1.00000000
END perioddata

