# File generated by Flopy version 3.9.2 on 02/17/2025 at 16:45:38.
BEGIN options
END options

BEGIN griddata
  strt
    INTERNAL  FACTOR  1.0
      9999.99000000    9999.99000000    9999.99000000    9999.99000000    9999.99000000    9999.99000000    9999.99000000    9999.99000000    9999.99000000    9999.99000000
      9999.99000000     600.00000000     600.00000000     600.00000000     600.00000000     600.00000000     600.00000000     600.00000000     600.00000000    9999.99000000
      9999.99000000     598.62700000     598.63500000     598.65100000     598.67100000     598.68500000     598.69600000     598.69800000     598.69900000    9999.99000000
      9999.99000000     597.24400000     597.26300000     597.29900000     597.34700000     597.37300000     597.40000000     597.39900000     597.39800000    9999.99000000
      9999.99000000     595.84400000     595.87300000     595.93500000     596.04600000     596.05800000     596.13400000     596.10000000     596.09500000    9999.99000000
      9999.99000000     592.98100000     593.02300000     593.10200000     593.21000000     593.29500000     593.38800000     593.43900000     593.47700000    9999.99000000
      9999.99000000     588.64400000     588.70700000     588.82300000     588.97600000     589.14000000     589.30700000     589.46000000     589.58700000    9999.99000000
      9999.99000000     584.24500000     584.33800000     584.50700000     584.73000000     584.98100000     585.24200000     585.50600000     585.82300000    9999.99000000
      9999.99000000     579.75300000     579.89100000     580.13900000     580.45700000     580.81200000     581.17400000     581.49800000     581.72900000    9999.99000000
      9999.99000000     569.73400000     570.03500000     570.53500000     571.13500000     571.77400000     572.45900000     573.02500000     573.37500000    9999.99000000
      9999.99000000     554.02800000     554.67900000     555.66600000     556.76100000     557.82800000     559.17700000     560.21100000     560.87700000    9999.99000000
      9999.99000000     537.67100000     538.98500000     540.69100000     542.41400000     543.60200000     546.21100000     547.76500000     549.04500000    9999.99000000
      9999.99000000     520.00000000     522.90000000     525.70000000     528.60000000     531.40000000     534.30000000     537.10000000     540.00000000    9999.99000000
      9999.99000000    9999.99000000    9999.99000000    9999.99000000    9999.99000000    9999.99000000    9999.99000000    9999.99000000    9999.99000000    9999.99000000
END griddata

