# File generated by Flopy version 3.9.2 on 02/17/2025 at 16:45:38.
BEGIN options
  auxiliary  CONCENTRATION
END options

BEGIN dimensions
  MAXBOUND  16
END dimensions

BEGIN period  1
  1 2 2 6.00000000E+02 0.00000000E+00
  1 13 2 5.20000000E+02 0.00000000E+00
  1 2 3 6.00000000E+02 0.00000000E+00
  1 13 3 5.22900000E+02 0.00000000E+00
  1 2 4 6.00000000E+02 0.00000000E+00
  1 13 4 5.25700000E+02 0.00000000E+00
  1 2 5 6.00000000E+02 0.00000000E+00
  1 13 5 5.28600000E+02 0.00000000E+00
  1 2 6 6.00000000E+02 0.00000000E+00
  1 13 6 5.31400000E+02 0.00000000E+00
  1 2 7 6.00000000E+02 0.00000000E+00
  1 13 7 5.34300000E+02 0.00000000E+00
  1 2 8 6.00000000E+02 0.00000000E+00
  1 13 8 5.37100000E+02 0.00000000E+00
  1 2 9 6.00000000E+02 0.00000000E+00
  1 13 9 5.40000000E+02 0.00000000E+00
END period  1

