# File generated by Flopy version 3.9.2 on 11/11/2025 at 21:44:13.
BEGIN options
END options

BEGIN griddata
  iconvert
    CONSTANT  0
  ss
    INTERNAL  FACTOR  1.0
    1.00000000E-05  1.00000000E-05  1.00000000E-05  1.00000000E-05  1.00000000E-05  1.00000000E-05  1.00000000E-05  1.00000000E-05  1.00000000E-05  1.00000000E-05
    1.00000000E-05  1.00000000E-05  1.00000000E-05  1.00000000E-05  1.00000000E-05  1.00000000E-05  1.00000000E-05  1.00000000E-05  1.00000000E-05  1.00000000E-05
    1.00000000E-05  1.00000000E-05  1.00000000E-05  1.00000000E-05  1.00000000E-05  1.00000000E-05  1.00000000E-05  1.00000000E-05  1.00000000E-05  1.00000000E-05
    1.00000000E-05  1.00000000E-05  1.00000000E-05  1.00000000E-05  1.00000000E-05  1.00000000E-05  1.00000000E-05  1.00000000E-05  1.00000000E-05  1.00000000E-05
    1.00000000E-05  1.00000000E-05  1.00000000E-05  1.00000000E-05  1.00000000E-05  1.00000000E-05  1.00000000E-05  1.00000000E-05  1.00000000E-05  1.00000000E-05
    1.00000000E-05  1.00000000E-05  1.00000000E-05  1.00000000E-05  1.00000000E-05  1.00000000E-05  1.00000000E-05  1.00000000E-05  1.00000000E-05  1.00000000E-05
    1.00000000E-05  1.00000000E-05  1.00000000E-05  1.00000000E-05  1.00000000E-05  1.00000000E-05  1.00000000E-05  1.00000000E-05  1.00000000E-05  1.00000000E-05
    1.00000000E-05  1.00000000E-05  1.00000000E-05  1.00000000E-05  1.00000000E-05  1.00000000E-05  1.00000000E-05  1.00000000E-05  1.00000000E-05  1.00000000E-05
    1.00000000E-05  1.00000000E-05  1.00000000E-05  1.00000000E-05  1.00000000E-05  1.00000000E-05  1.00000000E-05  1.00000000E-05  1.00000000E-05  1.00000000E-05
    1.00000000E-05  1.00000000E-05  1.00000000E-05  1.00000000E-05  1.00000000E-05  1.00000000E-05  1.00000000E-05  1.00000000E-05  1.00000000E-05  1.00000000E-05
    1.00000000E-05  1.00000000E-05  1.00000000E-05  1.00000000E-05  1.00000000E-05  1.00000000E-05  1.00000000E-05  1.00000000E-05  1.00000000E-05  1.00000000E-05
    1.00000000E-05  1.00000000E-05  1.00000000E-05  1.00000000E-05  1.00000000E-05  1.00000000E-05  1.00000000E-05  1.00000000E-05  1.00000000E-05  1.00000000E-05
    1.00000000E-05  1.00000000E-05  1.00000000E-05  1.00000000E-05  1.00000000E-05  1.00000000E-05  1.00000000E-05  1.00000000E-05  1.00000000E-05  1.00000000E-05
    1.00000000E-05  1.00000000E-05  1.00000000E-05  1.00000000E-05  1.00000000E-05  1.00000000E-05  1.00000000E-05  1.00000000E-05  1.00000000E-05  1.00000000E-05
  sy
    CONSTANT       0.15000000
END griddata

