# File generated by Flopy version 3.9.2 on 11/11/2025 at 21:44:13.
BEGIN options
  SAVE_SPECIFIC_DISCHARGE
END options

BEGIN griddata
  icelltype
    CONSTANT  0
  k
    INTERNAL  FACTOR  1.0
         0.15480000       0.15480000       0.15480000       0.15480000       0.15480000       0.15480000       0.15480000       0.15480000       0.15480000       0.15480000
         0.15480000       0.15480000       0.15480000       0.15480000       0.15480000       0.15480000       0.15480000       0.15480000       0.15480000       0.15480000
         0.15480000       0.15480000       0.15480000       0.15480000       0.15480000       0.15480000       0.15480000       0.15480000       0.15480000       0.15480000
         0.15480000       0.15480000       0.15480000       0.15480000       0.15480000       0.15480000       0.15480000       0.15480000       0.15480000       0.15480000
         0.15480000       0.15480000       0.15480000       0.15480000       0.15480000       0.15480000       0.15480000       0.15480000       0.15480000       0.15480000
         0.05150000       0.05150000       0.05150000       0.05150000       0.05150000       0.05150000       0.05150000       0.05150000       0.05150000       0.05150000
         0.05150000       0.05150000       0.05150000       0.05150000       0.05150000       0.05150000       0.05150000       0.05150000       0.05150000       0.05150000
         0.05150000       0.05150000       0.05150000       0.05150000       0.05150000       0.05150000       0.05150000       0.05150000       0.05150000       0.05150000
         0.05150000       0.05150000       0.05150000       0.05150000       0.05150000       0.05150000       0.05150000       0.05150000       0.05150000       0.05150000
         0.01548000       0.01548000       0.01548000       0.01548000       0.01548000       0.01548000       0.01548000       0.01548000       0.01548000       0.01548000
         0.01548000       0.01548000       0.01548000       0.01548000       0.01548000       0.01548000       0.01548000       0.01548000       0.01548000       0.01548000
         0.01548000       0.01548000       0.01548000       0.01548000       0.01548000       0.01548000       0.01548000       0.01548000       0.01548000       0.01548000
         0.01548000       0.01548000       0.01548000       0.01548000       0.01548000       0.01548000       0.01548000       0.01548000       0.01548000       0.01548000
         0.01548000       0.01548000       0.01548000       0.01548000       0.01548000       0.01548000       0.01548000       0.01548000       0.01548000       0.01548000
  k33
    INTERNAL  FACTOR  1.0
         0.15480000       0.15480000       0.15480000       0.15480000       0.15480000       0.15480000       0.15480000       0.15480000       0.15480000       0.15480000
         0.15480000       0.15480000       0.15480000       0.15480000       0.15480000       0.15480000       0.15480000       0.15480000       0.15480000       0.15480000
         0.15480000       0.15480000       0.15480000       0.15480000       0.15480000       0.15480000       0.15480000       0.15480000       0.15480000       0.15480000
         0.15480000       0.15480000       0.15480000       0.15480000       0.15480000       0.15480000       0.15480000       0.15480000       0.15480000       0.15480000
         0.15480000       0.15480000       0.15480000       0.15480000       0.15480000       0.15480000       0.15480000       0.15480000       0.15480000       0.15480000
         0.05150000       0.05150000       0.05150000       0.05150000       0.05150000       0.05150000       0.05150000       0.05150000       0.05150000       0.05150000
         0.05150000       0.05150000       0.05150000       0.05150000       0.05150000       0.05150000       0.05150000       0.05150000       0.05150000       0.05150000
         0.05150000       0.05150000       0.05150000       0.05150000       0.05150000       0.05150000       0.05150000       0.05150000       0.05150000       0.05150000
         0.05150000       0.05150000       0.05150000       0.05150000       0.05150000       0.05150000       0.05150000       0.05150000       0.05150000       0.05150000
         0.01548000       0.01548000       0.01548000       0.01548000       0.01548000       0.01548000       0.01548000       0.01548000       0.01548000       0.01548000
         0.01548000       0.01548000       0.01548000       0.01548000       0.01548000       0.01548000       0.01548000       0.01548000       0.01548000       0.01548000
         0.01548000       0.01548000       0.01548000       0.01548000       0.01548000       0.01548000       0.01548000       0.01548000       0.01548000       0.01548000
         0.01548000       0.01548000       0.01548000       0.01548000       0.01548000       0.01548000       0.01548000       0.01548000       0.01548000       0.01548000
         0.01548000       0.01548000       0.01548000       0.01548000       0.01548000       0.01548000       0.01548000       0.01548000       0.01548000       0.01548000
END griddata

