# File generated by Flopy version 3.9.2 on 02/17/2025 at 16:45:38.
BEGIN options
  LENGTH_UNITS  feet
END options

BEGIN dimensions
  NLAY  1
  NROW  14
  NCOL  10
END dimensions

BEGIN griddata
  delr
    CONSTANT    1500.00000000
  delc
    CONSTANT    1500.00000000
  top
    CONSTANT       0.00000000
  botm
    CONSTANT    -300.00000000
  idomain
    INTERNAL  FACTOR  1
    0  0  0  0  0  0  0  0  0  0
    0  1  1  1  1  1  1  1  1  0
    0  1  1  1  1  1  1  1  1  0
    0  1  1  1  1  1  1  1  1  0
    0  1  1  1  1  1  1  1  1  0
    0  1  1  1  1  1  1  1  1  0
    0  1  1  1  1  1  1  1  1  0
    0  1  1  1  1  1  1  1  1  0
    0  1  1  1  1  1  1  1  1  0
    0  1  1  1  1  1  1  1  1  0
    0  1  1  1  1  1  1  1  1  0
    0  1  1  1  1  1  1  1  1  0
    0  1  1  1  1  1  1  1  1  0
    0  0  0  0  0  0  0  0  0  0
END griddata

