# File generated by Flopy version 3.9.2 on 11/11/2025 at 21:44:13.
BEGIN options
  auxiliary  CONCENTRATION
  PRINT_INPUT
  PRINT_FLOWS
END options

BEGIN dimensions
  MAXBOUND  6
END dimensions

BEGIN period  1
  1 5 5 1.00000000E+01 1.00000000E+03
  1 5 7 1.00000000E+01 1.00000000E+03
  1 8 9 1.00000000E+01 1.00000000E+03
  1 12 6 -1.60000000E+01 0.00000000E+00
  1 12 8 -7.00000000E+00 0.00000000E+00
  1 12 9 -7.00000000E+00 0.00000000E+00
END period  1

BEGIN period  2
  1 5 5 1.00000000E+01 1.00000000E+03
  1 5 7 0.00000000E+00 1.00000000E+03
  1 8 9 2.00000000E+01 1.00000000E+03
  1 12 6 -1.60000000E+01 0.00000000E+00
  1 12 8 -7.00000000E+00 0.00000000E+00
  1 12 9 -7.00000000E+00 0.00000000E+00
END period  2

