# File generated by Flopy version 3.9.2 on 02/17/2025 at 16:45:38.
BEGIN options
  SAVE_FLOWS
END options

BEGIN packages
  DIS6  gwf-mf6-pr2.dis  dis
  IC6  gwf-mf6-pr2.ic  ic
  NPF6  gwf-mf6-pr2.npf  npf
  STO6  gwf-mf6-pr2.sto  sto
  CHD6  gwf-mf6-pr2.chd  chd-1
  WEL6  gwf-mf6-pr2.wel  wel-1
  OC6  gwf-mf6-pr2.oc  oc
END packages

