# File generated by Flopy version 3.9.2 on 02/17/2025 at 16:45:38.
BEGIN options
END options

BEGIN griddata
  strt
    CONSTANT       0.00000000
END griddata

