# File generated by Flopy version 3.9.2 on 11/11/2025 at 21:44:13.
BEGIN options
  SCHEME  tvd
END options

