# File generated by Flopy version 3.9.2 on 02/17/2025 at 16:45:38.
BEGIN options
  SAVE_FLOWS
END options

BEGIN packages
  DIS6  gwt-mf6-pr2.dis  dis
  IC6  gwt-mf6-pr2.ic  ic
  ADV6  gwt-mf6-pr2.adv  adv
  DSP6  gwt-mf6-pr2.dsp  dsp
  MST6  gwt-mf6-pr2.mst  mst
  SSM6  gwt-mf6-pr2.ssm  ssm
  OC6  gwt-mf6-pr2.oc  oc
END packages

