# File generated by Flopy version 3.9.2 on 11/11/2025 at 21:44:13.
BEGIN options
  BUDGET  FILEOUT  gwt-mf6-pr2.cbc
  CONCENTRATION  FILEOUT  gwt-mf6-pr2.ucn
  CONCENTRATION  PRINT_FORMAT  COLUMNS  10  WIDTH  15  DIGITS  6  GENERAL
END options

BEGIN period  1
  SAVE  CONCENTRATION  LAST
  SAVE  BUDGET  LAST
  PRINT  CONCENTRATION  LAST
  PRINT  BUDGET  LAST
END period  1

