# File generated by Flopy version 3.9.2 on 11/11/2025 at 21:44:13.
BEGIN options
END options

BEGIN griddata
  alh
    INTERNAL  FACTOR  1.0
         0.00000000       0.00000000       0.00000000       0.00000000       0.00000000       0.00000000       0.00000000       0.00000000       0.00000000       0.00000000
         0.00000000     164.00000000     164.00000000     164.00000000     164.00000000     164.00000000     164.00000000     164.00000000     164.00000000       0.00000000
         0.00000000     164.00000000     164.00000000     164.00000000     164.00000000     164.00000000     164.00000000     164.00000000     164.00000000       0.00000000
         0.00000000     164.00000000     164.00000000     164.00000000     164.00000000     164.00000000     164.00000000     164.00000000     164.00000000       0.00000000
         0.00000000     164.00000000     164.00000000     164.00000000     164.00000000     164.00000000     164.00000000     164.00000000     164.00000000       0.00000000
         0.00000000     164.00000000     164.00000000     164.00000000     164.00000000     164.00000000     164.00000000     164.00000000     164.00000000       0.00000000
         0.00000000     164.00000000     164.00000000     164.00000000     164.00000000     164.00000000     164.00000000     164.00000000     164.00000000       0.00000000
         0.00000000     164.00000000     164.00000000     164.00000000     164.00000000     164.00000000     164.00000000     164.00000000     164.00000000       0.00000000
         0.00000000     164.00000000     164.00000000     164.00000000     164.00000000     164.00000000     164.00000000     164.00000000     164.00000000       0.00000000
         0.00000000     164.00000000     164.00000000     164.00000000     164.00000000     164.00000000     164.00000000     164.00000000     164.00000000       0.00000000
         0.00000000     164.00000000     164.00000000     164.00000000     164.00000000     164.00000000     164.00000000     164.00000000     164.00000000       0.00000000
         0.00000000     164.00000000     164.00000000     164.00000000     164.00000000     164.00000000     164.00000000     164.00000000     164.00000000       0.00000000
         0.00000000     164.00000000     164.00000000     164.00000000     164.00000000     164.00000000     164.00000000     164.00000000     164.00000000       0.00000000
         0.00000000       0.00000000       0.00000000       0.00000000       0.00000000       0.00000000       0.00000000       0.00000000       0.00000000       0.00000000
  ath1
    INTERNAL  FACTOR  1.0
         0.00000000       0.00000000       0.00000000       0.00000000       0.00000000       0.00000000       0.00000000       0.00000000       0.00000000       0.00000000
         0.00000000      65.60000000      65.60000000      65.60000000      65.60000000      65.60000000      65.60000000      65.60000000      65.60000000       0.00000000
         0.00000000      65.60000000      65.60000000      65.60000000      65.60000000      65.60000000      65.60000000      65.60000000      65.60000000       0.00000000
         0.00000000      65.60000000      65.60000000      65.60000000      65.60000000      65.60000000      65.60000000      65.60000000      65.60000000       0.00000000
         0.00000000      65.60000000      65.60000000      65.60000000      65.60000000      65.60000000      65.60000000      65.60000000      65.60000000       0.00000000
         0.00000000      65.60000000      65.60000000      65.60000000      65.60000000      65.60000000      65.60000000      65.60000000      65.60000000       0.00000000
         0.00000000      65.60000000      65.60000000      65.60000000      65.60000000      65.60000000      65.60000000      65.60000000      65.60000000       0.00000000
         0.00000000      65.60000000      65.60000000      65.60000000      65.60000000      65.60000000      65.60000000      65.60000000      65.60000000       0.00000000
         0.00000000      65.60000000      65.60000000      65.60000000      65.60000000      65.60000000      65.60000000      65.60000000      65.60000000       0.00000000
         0.00000000      65.60000000      65.60000000      65.60000000      65.60000000      65.60000000      65.60000000      65.60000000      65.60000000       0.00000000
         0.00000000      65.60000000      65.60000000      65.60000000      65.60000000      65.60000000      65.60000000      65.60000000      65.60000000       0.00000000
         0.00000000      65.60000000      65.60000000      65.60000000      65.60000000      65.60000000      65.60000000      65.60000000      65.60000000       0.00000000
         0.00000000      65.60000000      65.60000000      65.60000000      65.60000000      65.60000000      65.60000000      65.60000000      65.60000000       0.00000000
         0.00000000       0.00000000       0.00000000       0.00000000       0.00000000       0.00000000       0.00000000       0.00000000       0.00000000       0.00000000
END griddata

