# File generated by Flopy version 3.9.2 on 02/17/2025 at 16:45:38.
BEGIN options
END options

BEGIN timing
  TDIS6  sim-mf6-pr2.tdis
END timing

BEGIN models
  gwf6  gwf-mf6-pr2.nam  gwf-mf6-pr2
  gwt6  gwt-mf6-pr2.nam  gwt-mf6-pr2
END models

BEGIN exchanges
  GWF6-GWT6  mf6-pr2.gwfgwt  gwf-mf6-pr2  gwt-mf6-pr2
END exchanges

BEGIN solutiongroup  1
  ims6  gwf-mf6-pr2.ims  gwf-mf6-pr2
  ims6  gwt-mf6-pr2.ims  gwt-mf6-pr2
END solutiongroup  1

