# File generated by Flopy version 3.9.2 on 09/17/2025 at 18:31:07.
BEGIN options
END options

BEGIN timing
  TDIS6  example_3.tdis
END timing

BEGIN models
  gwf6  example_3.nam  example_3
END models

BEGIN exchanges
END exchanges

BEGIN solutiongroup  1
  ims6  example_3.ims  example_3
END solutiongroup  1

