# File generated by Flopy version 3.3.6 on 09/17/2024 at 19:53:10.
BEGIN options
  BUDGET  FILEOUT  gwt-p09-mf6.cbc
  CONCENTRATION  FILEOUT  gwt-p09-mf6.ucn
  CONCENTRATION  PRINT_FORMAT  COLUMNS  10  WIDTH  15  DIGITS  6  GENERAL
END options

BEGIN period  1
  SAVE  CONCENTRATION  LAST
  SAVE  BUDGET  LAST
  PRINT  CONCENTRATION  LAST
  PRINT  BUDGET  LAST
END period  1

