# File generated by Flopy version 3.3.6 on 09/17/2024 at 19:53:10.
BEGIN griddata
  strt
    CONSTANT       0.00000000
END griddata

