# File generated by Flopy version 3.3.6 on 09/17/2024 at 19:53:10.
BEGIN options
  PRINT_FLOWS
END options

BEGIN sources
  WEL-1  AUX  CONCENTRATION
  CHD-1  AUX  CONCENTRATION
END sources

