# File generated by Flopy version 3.3.6 on 09/17/2024 at 19:53:10.
BEGIN options
END options

BEGIN griddata
  alh
    CONSTANT      20.00000000
  ath1
    CONSTANT       4.00000000
END griddata

